23
UFF-Energy = 0.0889791
C    -5.8894529    1.9564921    0.2380491 
C    -5.7861212    0.6040148    0.2419184 
C    -4.5996517    0.0057510   -0.0191430 
C    -4.7995669    2.7567055   -0.0331665 
C    -3.6069454    2.1170311   -0.2968874 
C    -3.5189724    0.7635488   -0.2856738 
H    -2.6826832    2.6576617   -0.4656355 
H    -2.5725791    0.2707119   -0.4808037 
H    -6.6642304    0.0000994    0.4451926 
H    -6.8810039    2.3633590    0.4013028 
O    -4.4636492   -1.3867310   -0.0198415 
H    -5.3223911   -1.8830356    0.1905003 
C    -4.8985374    4.1418266   -0.0403923 
C    -4.0114469    4.9252188   -0.7484051 
C    -4.1147313    6.2762920   -0.7526200 
C    -5.0945630    6.8863186   -0.0548166 
C    -5.9782292    6.1505634    0.6501191 
C    -5.8884301    4.7985598    0.6601601 
H    -6.5967671    4.2743378    1.2907666 
H    -6.7587694    6.6467609    1.2210600 
H    -3.2351347    4.5003101   -1.3737215 
H    -3.4120981    6.8723770   -1.3291889 
H    -5.1719653    7.9703106   -0.0604956 
