13
Energy =
C    -3.7349303    1.5951488    0.1137428 
C    -2.5952086    2.4826126    0.6194775 
C    -5.0633183    2.3582931   -0.0426124 
H    -5.3463208    2.8418777    0.9194605 
H    -5.8826559    1.6634045   -0.3295069 
H    -4.9859350    3.1508073   -0.8178671 
N    -3.4004544    0.9313876   -1.1562631 
H    -3.8544267    0.8178839    0.9092513 
H    -4.1183604    0.1983357   -1.3684492 
H    -3.4219778    1.6138359   -1.9506669 
O    -2.0559482    2.2364527    1.8762985 
O    -2.1025095    3.5569283   -0.1221460 
H    -2.5711939    3.6410969   -1.0091841 
