13
Energy =
C    -3.7603039    1.8201309    0.4587495 
C    -2.4548232    2.5965078    0.3842359 
C    -4.7627435    2.3047995   -0.6039649 
H    -4.3512420    2.1413638   -1.6253252 
H    -4.9607417    3.3925261   -0.4802654 
H    -5.7261278    1.7608005   -0.5057781 
N    -3.5135802    0.3713945    0.3168007 
H    -4.1894709    2.0385557    1.4664217 
H    -3.8063792   -0.1201809    1.1943216 
H    -4.0663219   -0.0573250   -0.4631636 
O    -2.0285138    3.3501094    1.4697705 
O    -1.6743202    2.5621263   -0.7635326 
H    -1.0840186    1.7453052   -0.7116850 
