13
Energy =
C    -3.8681697    1.6866863    0.1921331 
C    -2.5243244    2.4141022    0.1733434 
C    -5.0135007    2.5564588   -0.3434025 
H    -4.8421435    2.7711475   -1.4220894 
H    -5.0581451    3.5255493    0.1992975 
H    -5.9870974    2.0349247   -0.2325261 
N    -3.8290877    0.4513423   -0.6046933 
H    -4.0650780    1.4440776    1.2630156 
H    -3.0367844   -0.1497873   -0.2709503 
H    -4.7022500   -0.1001628   -0.4302643 
O    -1.4460533    1.8840466    0.8742556 
O    -2.3593332    3.6106651   -0.5186756 
H    -1.3981325    3.9112639   -0.4254008 
