13
Energy =
C    -3.7214363    1.5834779    0.2593161 
C    -2.6677278    2.6410896    0.6038399 
C    -5.1087662    2.1793131   -0.0095561 
H    -5.8414615    1.3579798   -0.1717348 
H    -5.1098465    2.8186292   -0.9170974 
H    -5.4483340    2.7860848    0.8585485 
N    -3.3460128    0.7477066   -0.8916799 
H    -3.7991567    0.9340126    1.1655820 
H    -3.1587714    1.3422724   -1.7335929 
H    -2.4519676    0.2432173   -0.6759243 
O    -1.9934318    2.5500124    1.8141063 
O    -2.3440339    3.6820951   -0.2666924 
H    -2.9046935    3.6638731   -1.1029530 
