13
Energy =
C    -3.4580437    1.7496887    0.2442144 
C    -2.8084569    3.1247284    0.1760863 
C    -4.9780658    1.8401842    0.0694307 
H    -5.4463371    0.8420466    0.1957028 
H    -5.2157992    2.2179288   -0.9499369 
H    -5.4165018    2.5411607    0.8126691 
N    -2.9288247    0.8492987   -0.7912502 
H    -3.2261019    1.3505040    1.2615021 
H    -1.8845211    0.7999036   -0.6999898 
H    -3.2745603   -0.1234915   -0.6133894 
O    -1.7495137    3.4287208    1.0193022 
O    -3.2168006    4.0618860   -0.7631893 
H    -2.7527534    3.8543650   -1.6355251 
