13
Energy =
C    -3.5517888    1.6777477    0.4203255 
C    -2.8582680    2.9916335    0.0908359 
C    -5.0823605    1.7918379    0.3081786 
H    -5.3796260    2.0452745   -0.7341231 
H    -5.4597383    2.5906864    0.9838400 
H    -5.5677721    0.8353664    0.5971057 
N    -3.0778508    0.5839470   -0.4413341 
H    -3.2745349    1.4550805    1.4781069 
H    -3.5425207   -0.3134129   -0.1667512 
H    -3.3334336    0.7795145   -1.4396976 
O    -2.9173437    3.5200566   -1.1960648 
O    -2.2032193    3.7011809    1.0909299 
H    -1.8046833    4.5406510    0.6910304 
