13
Energy =
C    -3.7560955    1.6135229    0.1868594 
C    -2.7291994    2.7045575    0.5072549 
C    -5.1916846    2.1573350    0.2170210 
H    -5.9245836    1.3349945    0.0696507 
H    -5.3427280    2.9064194   -0.5914223 
H    -5.4074375    2.6416250    1.1954016 
N    -3.5228393    1.0072915   -1.1328513 
H    -3.6456289    0.8407519    0.9861656 
H    -2.5602562    0.5916847   -1.1581357 
H    -4.1838949    0.2052197   -1.2676838 
O    -2.1160279    2.7129265    1.7542709 
O    -2.4071031    3.7048347   -0.4094480 
H    -2.9131010    3.5738707   -1.2737580 
