13
Energy =
C    -3.8357728    1.6942829    0.3353455 
C    -2.4389297    2.2453696    0.5773900 
C    -4.7058846    2.6856467   -0.4415672 
H    -4.8045048    3.6409390    0.1178446 
H    -5.7179649    2.2550437   -0.5988899 
H    -4.2550771    2.8974258   -1.4361034 
N    -3.8239954    0.4202947   -0.4005187 
H    -4.2842210    1.5359953    1.3457406 
H    -3.2647968    0.5299549   -1.2824591 
H    -3.3223485   -0.2991951    0.1732414 
O    -1.5738615    2.4728704   -0.4875013 
O    -2.0277255    2.5497233    1.8674622 
H    -1.0803976    2.9047627    1.8330643 
