13
Energy =
C    -3.9237254    1.6898836    0.2961919 
C    -2.6183208    2.3822663    0.6995270 
C    -4.6324642    2.4541258   -0.8273615 
H    -5.6262794    2.0029146   -1.0335852 
H    -4.0308191    2.4119814   -1.7618161 
H    -4.7850442    3.5197467   -0.5453998 
N    -3.7087065    0.3073966   -0.1617133 
H    -4.5695495    1.6978068    1.2090696 
H    -3.2686977   -0.2470610    0.6131826 
H    -4.6360117   -0.1502959   -0.3388623 
O    -2.6213157    3.2528432    1.7813436 
O    -1.4411153    2.2138952   -0.0260982 
H    -1.5821305    1.5407606   -0.7652443 
