13
Energy =
C    -3.8660497    1.7624550    0.3927634 
C    -2.5442797    2.5093494    0.5174062 
C    -4.6516719    2.2183012   -0.8382988 
H    -5.6070070    1.6551249   -0.9054410 
H    -4.0628940    2.0293536   -1.7626910 
H    -4.8794080    3.3043477   -0.7748419 
N    -3.6884732    0.3046155    0.3079590 
H    -4.4594754    2.0088942    1.3052071 
H    -2.9889799    0.0865724   -0.4451406 
H    -3.2596987   -0.0350710    1.2013997 
O    -2.3972365    3.5151167    1.4644144 
O    -1.4896360    2.2194510   -0.3405170 
H    -0.7099571    2.8242135   -0.1140506 
