13
Energy =
C    -3.8602606    1.6815931    0.1845426 
C    -2.5119407    2.2697290    0.6004566 
C    -4.7906270    2.7510862   -0.4058316 
H    -5.7919635    2.3214831   -0.6200536 
H    -4.3652424    3.1486577   -1.3532330 
H    -4.9188415    3.5966117    0.3067415 
N    -3.7160047    0.6090814   -0.8121205 
H    -4.3136423    1.2780649    1.1203384 
H    -3.1045894   -0.1456146   -0.4160221 
H    -4.6493239    0.1613912   -0.9720830 
O    -2.4600862    3.4654058    1.3049796 
O    -1.3271900    1.5892846    0.3533679 
H    -1.0203679    1.8254798   -0.5783517 
