13
Energy =
C    -3.6801183    1.6824428    0.3296773 
C    -2.3843494    2.4517477    0.0868821 
C    -4.9149800    2.4937819   -0.1064395 
H    -4.9412642    3.4724496    0.4231687 
H    -5.8474541    1.9413040    0.1358847 
H    -4.8799042    2.6916680   -1.2003320 
N    -3.6696012    0.3691389   -0.3459506 
H    -3.7278752    1.5420032    1.4348848 
H    -3.7204364   -0.3972157    0.3648998 
H    -4.4754112    0.2381135   -1.0011947 
O    -2.2664907    3.7638440    0.5354480 
O    -1.2875605    1.8545253   -0.5231401 
H    -0.5366528    2.5288708   -0.5708825 
