13
Energy =
C    -3.8177431    1.8325337    0.4330203 
C    -2.5682672    2.6989325    0.4639859 
C    -4.7031780    2.1679788   -0.7804883 
H    -5.6326169    1.5600940   -0.7628026 
H    -4.1520907    1.9686689   -1.7269563 
H    -4.9878835    3.2433098   -0.7651744 
N    -3.4587241    0.4004028    0.4333630 
H    -4.3883830    2.0843442    1.3594076 
H    -3.8305021   -0.0523723    1.3018119 
H    -3.8750999   -0.1198906   -0.3750902 
O    -2.3377348    3.5527141    1.5345060 
O    -1.6446219    2.6478728   -0.5714305 
H    -1.0128618    1.8834054   -0.3848204 
