13
Energy =
C    -3.7285754    1.7205850    0.3400603 
C    -2.5036893    2.6238892    0.2717149 
C    -4.8964418    2.2931514   -0.4681530 
H    -5.1842525    3.2949942   -0.0811365 
H    -5.7740370    1.6153697   -0.3975243 
H    -4.6122099    2.3934669   -1.5386701 
N    -3.4611842    0.3564374   -0.1439498 
H    -4.0223923    1.6818264    1.4163876 
H    -3.1018061    0.4109098   -1.1287648 
H    -2.6745125   -0.0549049    0.4131360 
O    -2.2753761    3.5592678    1.2722394 
O    -1.6253151    2.5498479   -0.8016225 
H    -0.8994758    3.2432802   -0.6714073 
