24
Energy =
C     1.3322500    1.8854110    1.3024575 
C     0.2340377    2.5140522    0.8093807 
C    -0.4107405    1.9918558   -0.2562733 
C     1.7787774    0.7405861    0.7273469 
C     1.1362535    0.2076374   -0.3506014 
C     0.0304431    0.8473599   -0.8375461 
O    -0.2529630    3.6954226    1.3778469 
H     0.2838574    4.0226735    2.1736531 
H    -0.5222672    0.4630288   -1.6863211 
H     2.6589479    0.2520217    1.1396107 
H     1.8559354    2.2962520    2.1589749 
H    -1.2884112    2.5028201   -0.6373752 
C     1.6919873   -1.0822011   -0.9435653 
C     1.0014731   -1.6260478   -2.2150976 
H     1.6598593   -1.8730723   -0.1605935 
H     2.7670891   -0.9088267   -1.1776412 
C     1.8187368   -2.7565838   -2.8205745 
O     2.4128464   -2.6007536   -4.0652977 
O     1.9963887   -3.9460994   -2.1272601 
H     2.5672190   -4.5633544   -2.6915067 
N    -0.3711670   -2.0559751   -1.8857969 
H     0.9759961   -0.8239857   -2.9893119 
H    -0.8394974   -2.3932284   -2.7608617 
H    -0.3236870   -2.8911931   -1.2508857 
