24
Energy =
C     2.3426451    2.4346684    0.5069711 
C     1.1250753    3.0384512    0.4860182 
C     0.0631948    2.3830705   -0.0345143 
C     2.4917027    1.1824345    0.0053001 
C     1.4234207    0.5200129   -0.5195228 
C     0.2052622    1.1291505   -0.5342992 
O     0.9370329    4.3287759    0.9913904 
H     1.7747658    4.7450208    1.3836354 
H    -0.6633042    0.6197167   -0.9427101 
H     3.4697004    0.7074733    0.0410926 
H     3.1985875    2.9493270    0.9299307 
H    -0.9028979    2.8761948   -0.0421751 
C     1.5826666   -0.8853916   -1.0670229 
C     1.5919742   -1.9809747    0.0293435 
H     2.5258081   -0.9475053   -1.6569579 
H     0.7677138   -1.1080281   -1.7904452 
C     2.8713313   -1.9605628    0.8476832 
O     3.0018805   -1.1465419    1.9681474 
O     3.9707217   -2.6877168    0.4136664 
H     4.7213087   -2.5690595    1.0825638 
N     0.3806937   -1.9121570    0.8694788 
H     1.6143285   -2.9756476   -0.4737195 
H     0.4335576   -1.0731559    1.4981470 
H    -0.4729743   -1.8089222    0.2740805 
