24
Energy =
C     0.6519795    2.2705800    0.2908665 
C    -0.1468957    2.7441288   -0.7024982 
C    -0.2404603    2.0630463   -1.8669701 
C     1.3523258    1.1216311    0.1137337 
C     1.2631374    0.4381509   -1.0605769 
C     0.4568933    0.9132077   -2.0495215 
O    -0.8832303    3.9234112   -0.5528767 
H    -0.7563796    4.3786025    0.3447290 
H     0.3657213    0.3781391   -2.9913559 
H     1.9795652    0.7488661    0.9207688 
H     0.7302129    2.8077901    1.2300186 
H    -0.8827319    2.4511494   -2.6501516 
C     2.0266109   -0.8537764   -1.2541779 
C     1.1668391   -2.0915883   -0.9231842 
H     2.9392760   -0.8695261   -0.6150426 
H     2.3927021   -0.9106341   -2.3042783 
C     1.8467006   -3.3800498   -1.3781446 
O     3.1765765   -3.3901909   -1.7792620 
O     1.1296407   -4.5690016   -1.3993519 
H     0.5312112   -4.5831464   -2.2115054 
N     0.8934267   -2.1103074    0.5260432 
H     0.2091512   -2.0375270   -1.4905872 
H     0.1236780   -1.4330615    0.7369771 
H     0.5267085   -3.0554236    0.8028227 
