24
Energy =
C     1.2169979    2.5498227    0.6022062 
C     0.1036867    2.8186586   -0.1176754 
C    -0.4026569    1.8849635   -0.9552423 
C     1.8206390    1.3379652    0.4982408 
C     1.3086860    0.3876837   -0.3336887 
C     0.1971759    0.6725498   -1.0678466 
O    -0.5146171    4.0600086   -0.0054150 
H    -1.1999426    4.0544045    0.7420055 
H    -0.2163010   -0.0646075   -1.7517890 
H     2.7238603    1.1389178    1.0733913 
H     1.6230824    3.3179263    1.2517561 
H    -1.2864502    2.1195558   -1.5392296 
C     1.9912036   -0.9562266   -0.4777666 
C     3.0472676   -0.9488095   -1.6000984 
H     1.2300857   -1.7388483   -0.6900144 
H     2.4728445   -1.2633771    0.4793003 
C     4.2318918   -0.0397757   -1.2563675 
O     4.7291588   -0.0037931    0.0423485 
O     4.8564592    0.7417990   -2.2282330 
H     4.4479801    0.6199748   -3.1422836 
N     3.4849119   -2.3356024   -1.8261869 
H     2.5741904   -0.5533229   -2.5288212 
H     2.7283923   -2.8602848   -2.3247565 
H     4.3166589   -2.3437955   -2.4654393 
