24
Energy =
C     1.2106625    2.1894024    0.4629169 
C     0.7319038    2.9485408   -0.5496446 
C     0.5811507    2.4144139   -1.7833480 
C     1.5516267    0.8942223    0.2420333 
C     1.4147686    0.3526309   -1.0003114 
C     0.9180115    1.1193382   -2.0114885 
O     0.3826948    4.2755318   -0.3202934 
H     1.1776430    4.8865615   -0.4718474 
H     0.7845115    0.7014043   -3.0059300 
H     1.9222551    0.2903973    1.0673588 
H     1.3092244    2.6254334    1.4511254 
H     0.1822383    3.0298650   -2.5829114 
C     1.7683680   -1.0983479   -1.2439751 
C     0.5661555   -2.0229982   -0.9849775 
H     2.6088430   -1.4053028   -0.5789317 
H     2.1358241   -1.2219530   -2.2872661 
C     0.8436415   -3.4195422   -1.5249333 
O     1.7793360   -4.2405929   -0.9110942 
O     0.2063181   -3.8636127   -2.6753948 
H     0.6382536   -3.4378638   -3.4817857 
N     0.2743598   -2.0135589    0.4654707 
H    -0.3158863   -1.6516031   -1.5601504 
H    -0.6666698   -1.5852737    0.6311920 
H     0.2357944   -2.9861125    0.8601532 
