24
Energy =
C     2.2007366    2.7034941    0.0010503 
C     1.0743853    3.2439899   -0.5184647 
C     0.1059551    2.4416687   -1.0168303 
C     2.3592069    1.3556258    0.0321105 
C     1.3841409    0.5408101   -0.4589256 
C     0.2565073    1.0929105   -0.9887829 
O     0.9169143    4.6257004   -0.5513194 
H     0.4805564    4.9583413    0.3017167 
H    -0.5269673    0.4600388   -1.4000221 
H     3.2708991    0.9349155    0.4494946 
H     2.9742569    3.3602122    0.3846044 
H    -0.7861785    2.8886935   -1.4432258 
C     1.5675465   -0.9609904   -0.4399776 
C     2.4739115   -1.4608049   -1.5923073 
H     0.5837838   -1.4811739   -0.5020437 
H     2.0027679   -1.2556398    0.5423750 
C     2.8630143   -2.9285482   -1.4011207 
O     2.2711321   -3.6845561   -0.3934514 
O     3.8494977   -3.5283740   -2.1834381 
H     4.1329376   -2.9257085   -2.9415318 
N     1.7879459   -1.2640524   -2.8777651 
H     3.4265733   -0.8848162   -1.5859792 
H     1.6644166   -0.2387901   -3.0563050 
H     2.4138147   -1.5991224   -3.6441829 
