24
Energy =
C     0.8143181    2.6170998    0.4313206 
C     0.2227529    2.0125912    1.4957174 
C     0.1521912    0.6632323    1.5437254 
C     1.3323359    1.8702752   -0.5764822 
C     1.2669676    0.5099210   -0.5275445 
C     0.6687328   -0.0890475    0.5391918 
O    -0.3204442    2.7521374    2.5509309 
H    -0.2300988    3.7565760    2.4419964 
H     0.5968182   -1.1720441    0.5935881 
H     1.8011124    2.3709911   -1.4198722 
H     0.8738221    3.6991157    0.3832481 
H    -0.3253404    0.1944878    2.3974360 
C     1.8437520   -0.3321456   -1.6501021 
C     3.1033144   -1.1383092   -1.2139236 
H     2.1016547    0.2985177   -2.5320250 
H     1.0314540   -1.0194717   -1.9656135 
C     3.6894967   -2.0571272   -2.3005816 
O     5.0002144   -2.4989757   -2.1604410 
O     2.9532433   -2.5671998   -3.3754577 
H     1.9885328   -2.2928074   -3.3872301 
N     4.1590681   -0.2276151   -0.7146623 
H     2.8004064   -1.8392273   -0.4025042 
H     3.8732107    0.7769560   -0.6701119 
H     4.4510178   -0.5110020    0.2506082 
