24
Energy =
C     2.1971967    2.6776547    0.1541701 
C     1.1158743    3.2537096   -0.4201361 
C     0.1598590    2.4830751   -0.9879441 
C     2.3299460    1.3267164    0.1567413 
C     1.3705742    0.5441655   -0.4115075 
C     0.2850056    1.1314572   -0.9887920 
O     0.9835972    4.6386864   -0.4214971 
H     1.4247986    5.0406127   -1.2412427 
H    -0.4867838    0.5243968   -1.4565943 
H     3.2054500    0.8773210    0.6191363 
H     2.9511516    3.3076665    0.6135828 
H    -0.7056803    2.9568588   -1.4392227 
C     1.5251613   -0.9606202   -0.4229538 
C     2.4254835   -1.4459651   -1.5771052 
H     0.5336492   -1.4612022   -0.5095618 
H     1.9483923   -1.2919761    0.5520171 
C     2.7702789   -2.9205269   -1.4178665 
O     3.8843040   -3.4400684   -2.0665429 
O     1.9785344   -3.7664882   -0.6480428 
H     2.3589074   -4.7031313   -0.6976272 
N     1.7494754   -1.1885247   -2.8617720 
H     3.3986804   -0.9027204   -1.5416041 
H     1.8071787   -0.1656738   -3.0762489 
H     2.2814793   -1.6640695   -3.6314062 
