24
Energy =
C     1.2809683    2.5682424   -0.7803623 
C     0.0921713    2.8479765   -0.1977795 
C    -0.6432961    1.8538131    0.3506618 
C     1.7358441    1.2899060   -0.8232011 
C     1.0001879    0.2835749   -0.2740830 
C    -0.1952395    0.5732062    0.3121440 
O    -0.3711184    4.1593482   -0.1562146 
H    -0.9148175    4.3737400   -0.9849071 
H    -0.8001310   -0.2151908    0.7527942 
H     2.6918493    1.0790583   -1.2965958 
H     1.8639582    3.3770412   -1.2073848 
H    -1.5909565    2.0920482    0.8220927 
C     1.5009072   -1.1423222   -0.3342362 
C     1.2806809   -1.7808143   -1.7271453 
H     1.0122892   -1.7681630    0.4468781 
H     2.5874710   -1.1472612   -0.0870354 
C     2.0306272   -3.0949017   -1.8398128 
O     1.6309171   -4.2042108   -1.1005989 
O     3.1779952   -3.1729359   -2.6196165 
H     3.5393217   -4.1172058   -2.5751491 
N    -0.1570050   -1.9618953   -1.9992515 
H     1.7218058   -1.1276476   -2.5156626 
H    -0.5994859   -2.5341807   -1.2401336 
H    -0.6379164   -1.0328555   -2.0269361 
