24
Energy =
C     0.6556209    1.5185530    1.1336711 
C    -0.3804523    2.2199201    0.6182797 
C    -0.6253623    2.1871521   -0.7115050 
C     1.4484073    0.7751980    0.3201063 
C     1.2094512    0.7384884   -1.0205209 
C     0.1629679    1.4471475   -1.5315187 
O    -1.1905088    2.9805396    1.4552382 
H    -1.9602517    2.4237979    1.8108209 
H    -0.0536298    1.4205405   -2.5974825 
H     2.2726144    0.2104880    0.7488239 
H     0.8429645    1.5593308    2.2013545 
H    -1.4576201    2.7556394   -1.1130828 
C     2.0793135   -0.1102982   -1.9236859 
C     1.6407393   -1.5873429   -1.9259465 
H     3.1366820   -0.0379068   -1.5877618 
H     2.0655541    0.2744663   -2.9693622 
C     0.2401541   -1.7664673   -2.5003119 
O    -0.2044345   -0.9950965   -3.5708269 
O    -0.5966673   -2.7435492   -1.9779296 
H    -1.4667123   -2.7376821   -2.4945970 
N     2.6363574   -2.3659442   -2.6816536 
H     1.5991924   -1.9593684   -0.8750680 
H     3.5159108   -2.4328667   -2.1181504 
H     2.2897181   -3.3512714   -2.7876473 
