24
Energy =
C     1.2906016    2.4141200    0.6811642 
C     0.4364700    2.9766043   -0.2038715 
C    -0.0233433    2.2437150   -1.2526567 
C     1.6885849    1.1255507    0.5295352 
C     1.2237830    0.3843858   -0.5137407 
C     0.3706289    0.9543071   -1.4088448 
O     0.0510581    4.3075190   -0.0140000 
H    -0.5910353    4.6589854   -0.7158153 
H     0.0069342    0.3823350   -2.2595831 
H     2.3810906    0.6940149    1.2476773 
H     1.6538940    3.0100893    1.5115919 
H    -0.7030595    2.6891477   -1.9703323 
C     1.6831242   -1.0458664   -0.6987500 
C     2.9553938   -1.1261893   -1.5595819 
H     0.8788627   -1.6481797   -1.1804475 
H     1.8635485   -1.5099572    0.2972512 
C     3.5385603   -2.5430329   -1.5028589 
O     2.8662967   -3.5850477   -2.1302664 
O     4.7069075   -2.8312954   -0.7958204 
H     5.1140988   -2.0142665   -0.3665868 
N     2.6158109   -0.6992186   -2.9338556 
H     3.7144597   -0.4315881   -1.1310254 
H     3.1488702    0.1698824   -3.1729962 
H     2.8854233   -1.4225408   -3.6450736 
