24
Energy =
C     0.8257486    2.0036836    1.0228606 
C    -0.4933773    2.1238317    0.6983954 
C    -0.9804382    1.3758184   -0.3113340 
C     1.6606423    1.1246080    0.3585710 
C     1.1350087    0.3911493   -0.6610626 
C    -0.1811098    0.5171949   -0.9823970 
O    -1.3565015    3.0165407    1.3832668 
H    -0.8289910    3.4530676    2.1250677 
H    -0.6079626   -0.0855820   -1.7728230 
H     4.6587818    1.2272864    1.1074862 
H     1.2521942    2.5970669    1.8211106 
H    -2.0253970    1.4582182   -0.5807471 
C     1.9829355   -0.6546878   -1.3212260 
C     2.5484333   -1.6157080   -0.2500068 
H     2.8106246   -0.1582413   -1.8720738 
H     1.3931101   -1.2322952   -2.0474116 
C     3.6011343   -0.8935357    0.5796076 
O     4.9463378   -1.2830492    0.5078229 
O     3.3122535    0.2335710    1.3750544 
H     3.3590107    1.6136678    0.5149977 
N     1.4787640   -2.1850251    0.6006820 
H     3.0668019   -2.4413283   -0.7669984 
H     1.2594246   -1.3578437    1.2341414 
H     0.6154234   -2.2695891    0.0274011 
