24
Energy =
C     1.5557422    2.6031047    0.4000557 
C     0.2106524    2.7776223    0.4836696 
C    -0.6173571    1.7939768    0.0665083 
C     2.0642024    1.4484985   -0.0996979 
C     1.2329706    0.4501954   -0.5114613 
C    -0.1147941    0.6354436   -0.4307426 
O    -0.3466814    3.9569970    0.9885667 
H     0.3383601    4.6336151    1.3076080 
H    -0.8012834   -0.1389885   -0.7615852 
H     3.1421362    1.3289317   -0.1579152 
H     2.2284028    3.3853991    0.7343432 
H    -1.6887028    1.9473281    0.1375062 
C     1.7964889   -0.8443853   -1.0728660 
C     2.3359248   -1.8284631    0.0038009 
H     2.6081307   -0.6010742   -1.7943296 
H     1.0202868   -1.3699791   -1.6727714 
C     3.5686275   -1.3014687    0.7230982 
O     3.4606857   -0.4795712    1.8378881 
O     4.8315997   -1.5599750    0.2032123 
H     5.0027364   -0.9464569   -0.5785853 
N     1.2838572   -2.2404856    0.9583053 
H     2.7114862   -2.7301797   -0.5357114 
H     0.3602048   -1.7910312    0.7674322 
H     1.1377106   -3.2759407    0.9111211 
