24
Energy =
C     2.3685482    2.1938907    0.8393414 
C     1.1571281    2.7861180    0.9442310 
C     0.0789485    2.2219886    0.3380574 
C     2.5131284    1.0434105    0.1343378 
C     1.4379607    0.4773423   -0.4800443 
C     0.2179428    1.0732656   -0.3707507 
O     1.0492954    3.9710084    1.6794104 
H     0.1083633    4.3467653    1.7280521 
H    -0.6564122    0.6324037   -0.8445223 
H     3.4940377    0.5798142    0.0669576 
H     3.2209768    2.6514462    1.3303290 
H    -0.8971892    2.6867328    0.4217010 
C     1.5976435   -0.8179845   -1.2481687 
C     1.5821726   -2.0481258   -0.3193808 
H     2.5553306   -0.7914767   -1.8133082 
H     0.8003231   -0.9276698   -2.0193000 
C     0.2189819   -2.2506372    0.3577809 
O    -0.9558652   -1.8931375   -0.2991555 
O     0.1311140   -2.8699255    1.6068465 
H     1.0346210   -3.1262395    1.9841346 
N     1.9807973   -3.2243991   -1.1182303 
H     2.3178977   -1.8836474    0.5042846 
H     3.0130766   -3.1914526   -1.2913470 
H     1.8033284   -4.1089818   -0.5759544 
