24
Energy =
C     1.7791065    2.5542806    0.6309964 
C     0.4969885    2.7974376    0.9854706 
C    -0.4802365    1.9357099    0.6229257 
C     2.0907802    1.4410481   -0.0807433 
C     1.1146088    0.5594368   -0.4386287 
C    -0.1766378    0.8192419   -0.0871651 
O     0.1816360    3.9393954    1.7148994 
H     0.2352795    3.7516948    2.7100263 
H    -0.9755992    0.1408256   -0.3737569 
H     3.1272805    1.2585469   -0.3569844 
H     2.5503108    3.2596411    0.9210500 
H    -1.5062588    2.1500809    0.9025603 
C     1.4621971   -0.6885423   -1.2287641 
C     2.0538650   -1.8308336   -0.3602975 
H     2.1943995   -0.4194855   -2.0244010 
H     0.5666157   -1.0709507   -1.7667642 
C     3.3704369   -1.4274129    0.2956980 
O     4.5165072   -1.3240446   -0.4824326 
O     3.4376803   -1.0785766    1.6396966 
H     4.3955050   -0.8446189    1.8680495 
N     1.0486214   -2.3903756    0.5778367 
H     2.3499832   -2.6504591   -1.0542537 
H     1.3839200   -2.3268732    1.5705005 
H     0.1505211   -1.8580874    0.5589917 
