24
Energy =
C     1.7063600    2.5875309    0.5532353 
C     0.5952230    3.0187082   -0.1007087 
C    -0.0720839    2.1705435   -0.9155777 
C     2.1419517    1.3131677    0.3906965 
C     1.4684809    0.4550324   -0.4261053 
C     0.3567351    0.8936052   -1.0792931 
O     0.1179554    4.3248640    0.0480425 
H     0.6806989    4.9054918    0.6601604 
H    -0.1899076    0.2312105   -1.7467700 
H     3.0346619    0.9870549    0.9174727 
H     2.2500008    3.2610118    1.2065292 
H    -0.9516744    2.5290856   -1.4395866 
C     1.9602295   -0.9665123   -0.6196135 
C     2.8508389   -1.1428038   -1.8751797 
H     1.0851165   -1.6516402   -0.6868790 
H     2.5264337   -1.2974098    0.2792064 
C     2.0721425   -0.8987921   -3.1705225 
O     2.0499508    0.3670732   -3.7454235 
O     1.2860224   -1.9017744   -3.7406181 
H     1.3605777   -2.7775142   -3.2457065 
N     4.0661388   -0.3126342   -1.7839809 
H     3.1779925   -2.2057802   -1.9151180 
H     3.8211778    0.7025275   -1.8893039 
H     4.5283270   -0.4369020   -0.8534297 
