24
Energy =
C     2.1160877    2.4926370   -0.1162327 
C     1.0047848    2.9340467    0.5172826 
C    -0.0766400    2.1293441    0.6272102 
C     2.1519783    1.2401479   -0.6390662 
C     1.0649784    0.4254551   -0.5368047 
C    -0.0492258    0.8764592    0.1067084 
O     0.9722505    4.2179977    1.0512708 
H     1.3321212    4.2188236    1.9997935 
H    -0.9191547    0.2318623    0.2210685 
H     3.0550472    0.8963011   -1.1366944 
H     2.9737043    3.1515586   -0.1995011 
H    -0.9608067    2.4933144    1.1401530 
C     1.1115582   -0.9828501   -1.0907340 
C     1.6238774   -1.9937210   -0.0395761 
H     1.7681546   -1.0093505   -1.9879523 
H     0.0978515   -1.2883783   -1.4380984 
C     0.6842207   -2.0791217    1.1516309 
O     1.0654846   -1.5493922    2.3763996 
O    -0.5999574   -2.5878840    1.0057832 
H    -0.5450817   -3.5955796    1.0445500 
N     1.8181978   -3.3129781   -0.6687682 
H     2.5981734   -1.6420856    0.3753990 
H     0.9320706   -3.6231260   -1.1363753 
H     2.5577231   -3.2491614   -1.4077294 
