24
Energy =
C     0.8251813    2.5242735   -0.7361206 
C    -0.4899224    2.2557146   -0.5179225 
C    -0.8778859    0.9867213   -0.2429888 
C     1.7312319    1.5192378   -0.6775225 
C     1.3513497    0.2446046   -0.4171691 
C     0.0363665   -0.0184497   -0.1861116 
O    -1.4616169    3.2598169   -0.5677002 
H    -1.0944506    4.1830252   -0.7740818 
H    -0.2939681   -1.0275071    0.0471608 
H     2.8926039    1.6349334   -0.8559143 
H     1.1556128    3.5335529   -0.9547933 
H    -1.9296723    0.7892227   -0.0649236 
C     2.4097363   -0.8487614   -0.3164685 
C     3.5462817   -0.7294836   -1.3825340 
H     1.9160481   -1.8396592   -0.4240171 
H     2.8573771   -0.8285244    0.7026696 
C     4.4988679    0.4672219   -1.1107569 
O     3.9726703    1.7593746   -1.0242878 
O     5.8788659    0.3343059   -0.9545220 
H     6.1918587   -0.6241492   -0.9501216 
N     4.2606987   -2.0124725   -1.4692964 
H     3.0806181   -0.5225946   -2.3736597 
H     3.5850219   -2.7767711   -1.7078043 
H     4.9065954   -1.9671117   -2.2912441 
