24
Energy =
C     0.6512537    2.7567616    0.2297918 
C    -0.5474301    2.7421013   -0.4077855 
C    -0.8909308    1.6717237   -1.1558035 
C     1.4970447    1.7020361    0.1155399 
C     1.1531428    0.6112025   -0.6286342 
C    -0.0476322    0.6144225   -1.2759908 
O    -1.4412002    3.8140772   -0.3175680 
H    -1.1237749    4.5659021    0.2847465 
H    -0.3610919   -0.2218615   -1.8789033 
H     2.4530546    1.7376687    0.6320993 
H     0.9377162    3.6125019    0.8315394 
H    -1.8536330    1.6742318   -1.6555365 
C     2.1589675   -0.5297423   -0.7534814 
C     1.6096361   -1.9659961   -1.0073654 
H     2.7349516   -0.5818476    0.1994740 
H     2.9015822   -0.2636931   -1.5362255 
C     0.5074252   -2.4010781   -0.0319283 
O     0.2146635   -1.6341697    1.0885863 
O    -0.1756511   -3.6035240   -0.2077369 
H     0.1986704   -4.1362249   -0.9797435 
N     1.2645457   -2.1832519   -2.4331240 
H     2.4473800   -2.6619293   -0.7747352 
H     0.2302904   -2.2526698   -2.5862289 
H     1.6348776   -1.4283022   -3.0576033 
