24
Energy =
C     1.9995941    2.7927865   -0.2682424 
C     0.8061438    3.1372970    0.2681958 
C    -0.0951418    2.1656665    0.5847583 
C     2.2878625    1.4873942   -0.4863869 
C     1.3961544    0.5140171   -0.1911543 
C     0.2008357    0.8571852    0.3609417 
O     0.5306600    4.4910844    0.4843254 
H    -0.3801560    4.6705054    0.8919875 
H    -0.5221918    0.0916702    0.6302012 
H     3.2824572    1.0743581   -0.9620802 
H     2.7165629    3.5667619   -0.5196697 
H    -1.0506404    2.4342272    1.0212355 
C     1.7865001   -0.9420176   -0.4052999 
C     2.5432080   -1.2139873   -1.7423565 
H     0.8702764   -1.5723154   -0.3788072 
H     2.4207719   -1.2725797    0.4472333 
C     3.9680831   -0.6130461   -1.7839808 
O     4.2171570    0.7042567   -1.4051892 
O     5.0279171   -1.3437404   -2.2916977 
H     5.3935799   -1.9199028   -1.5490780 
N     2.5635670   -2.6717768   -1.9622774 
H     1.9922878   -0.7201997   -2.5772007 
H     1.5847266   -3.0132171   -2.1109902 
H     3.0684194   -2.8781224   -2.8584647 
