24
Energy =
C     1.0802736    2.2604574    0.8144303 
C     0.0035753    2.6345264    0.0732389 
C    -0.4315322    1.8333800   -0.9258710 
C     1.7116729    1.0869725    0.5554962 
C     1.2686766    0.2755566   -0.4448933 
C     0.1971625    0.6599877   -1.1906779 
O    -0.6716832    3.8347663    0.3153722 
H    -0.2785674    4.3882827    1.0689916 
H    -0.1629667    0.0338144   -2.0033718 
H     2.5825342    0.8031098    1.1451363 
H     1.4409691    2.9015624    1.6116608 
H    -1.2880059    2.1468479   -1.5132814 
C     1.9860911   -1.0210342   -0.7530240 
C     3.1271279   -0.8212118   -1.7687886 
H     1.2661132   -1.7651977   -1.1616495 
H     2.3922779   -1.4737590    0.1799058 
C     4.2313145    0.0714528   -1.2298973 
O     4.7312193   -0.1074371    0.0557858 
O     4.7615515    1.0712037   -2.0303523 
H     5.5002340    1.5400825   -1.5210678 
N     3.6336372   -2.1466640   -2.1642541 
H     2.7286251   -0.2930179   -2.6682014 
H     4.3628929   -2.0202134   -2.9076164 
H     4.1298666   -2.5808948   -1.3480985 
