24
Energy =
C     1.9975768    2.5380379    0.3497175 
C     0.6957064    2.8995428    0.4186051 
C    -0.2670152    2.0461109    0.0000073 
C     2.3414013    1.3172789   -0.1344464 
C     1.3782202    0.4538811   -0.5612286 
C     0.0690575    0.8231359   -0.4843796 
O     0.3468459    4.1512906    0.9154855 
H     0.2141236    4.1137629    1.9200449 
H    -0.7155620    0.1456040   -0.8117874 
H     3.3898718    1.0296998   -0.1724598 
H     2.7585327    3.2344918    0.6848657 
H    -1.3066950    2.3514146    0.0546151 
C     1.7572924   -0.9154755   -1.0822075 
C     1.8694554   -1.9443212    0.0555370 
H     2.7303717   -0.8639785   -1.6229059 
H     1.0051203   -1.2512960   -1.8317301 
C     1.9721752   -3.3594485   -0.5260480 
O     3.1657386   -3.7819663   -1.0990267 
O     0.8754303   -4.2222069   -0.5546882 
H     0.0491028   -3.8158625   -0.1430526 
N     3.0284165   -1.5794085    0.8996454 
H     0.9364510   -1.9038995    0.6644507 
H     2.6966958   -1.3224130    1.8591495 
H     3.6922810   -2.3840357    1.0192640 
