24
Energy =
C     0.6912816    2.6476853   -0.7421720 
C    -0.4346684    2.5862703    0.0037486 
C    -0.7898800    1.4117575    0.5876570 
C     1.4643071    1.5454927   -0.9140323 
C     1.1114015    0.3630522   -0.3370585 
C    -0.0190769    0.3067827    0.4225798 
O    -1.2053181    3.7433171    0.1551139 
H    -2.0409130    3.6167757    0.7157661 
H    -0.3192438   -0.6258456    0.8968566 
H     2.3661241    1.6204659   -1.5154504 
H     0.9654453    3.5918180   -1.2009097 
H    -1.6923516    1.3540634    1.1861362 
C     1.9701476   -0.8745824   -0.5297873 
C     1.4181555   -1.8618198   -1.5919466 
H     2.0631554   -1.4035309    0.4465602 
H     3.0078751   -0.5874623   -0.8099612 
C     0.0239284   -2.3740607   -1.2297170 
O    -0.0925965   -3.3422263   -0.2404590 
O    -1.1406121   -1.8270156   -1.7644602 
H    -0.9127872   -1.1446496   -2.4725397 
N     1.4826097   -1.2905981   -2.9582324 
H     2.0562334   -2.7778555   -1.5485713 
H     1.7828037   -0.2882448   -2.9666119 
H     2.1901600   -1.8123170   -3.5299162 
