24
Energy =
C     0.6646526    2.3977078   -0.2832188 
C    -0.5667370    1.9941196    0.1066573 
C    -0.8330552    0.6729630    0.2511439 
C     1.6283983    1.4738268   -0.5193561 
C     1.3739701    0.1490508   -0.3879588 
C     0.1358845   -0.2507490    0.0113052 
O    -1.5603941    2.9354707    0.3564174 
H    -1.5392411    3.2237643    1.3282475 
H    -0.0860927   -1.3063387    0.1422262 
H     2.7345238    1.7154680   -0.8655046 
H     0.8699363    3.4555026   -0.4041133 
H    -1.8250697    0.3628857    0.5608913 
C     2.4926918   -0.8573227   -0.6180633 
C     3.4526969   -0.4888234   -1.7934388 
H     2.0565823   -1.8612492   -0.8088091 
H     3.0990947   -0.9602876    0.3104193 
C     4.3369990    0.7336885   -1.4857945 
O     3.7580600    1.9544627   -1.1859982 
O     5.7118736    0.6817740   -1.5036756 
H     5.9368883   -0.3078276   -1.5417558 
N     4.2474665   -1.6718168   -2.1665913 
H     2.8602644   -0.1662967   -2.6794726 
H     4.8432480   -1.9376656   -1.3521513 
H     3.6272435   -2.4893362   -2.4071044 
