24
Energy =
C     1.1412604    2.4948503   -0.3214861 
C     0.1325278    2.5608972    0.5775046 
C    -0.3865128    1.4253452    1.0967889 
C     1.6312631    1.2900313   -0.7097997 
C     1.1126504    0.1400220   -0.1945402 
C     0.0976091    0.2168634    0.7128598 
O    -0.3675231    3.7972037    0.9733873 
H    -1.1161833    4.0917215    0.3558875 
H    -0.3358715   -0.6867543    1.1340567 
H     2.4337393    1.2513996   -1.4415431 
H     1.5504390    3.4138184   -0.7265392 
H    -1.1925451    1.4912408    1.8199798 
C     1.6494509   -1.2075103   -0.6407168 
C     0.9908389   -1.7112966   -1.9444567 
H     1.5052366   -1.9622305    0.1648969 
H     2.7479941   -1.1335664   -0.7941139 
C    -0.5056720   -1.9704567   -1.7750318 
O    -0.9957316   -2.4864848   -0.5787833 
O    -1.3782693   -1.8283195   -2.8482918 
H    -2.3119273   -2.0772140   -2.5480615 
N     1.2976390   -0.7615306   -3.0326815 
H     1.4211025   -2.7092067   -2.1903981 
H     2.2856298   -0.9045541   -3.3455397 
H     0.6921323   -0.9702087   -3.8650785 
