24
Energy =
C     1.5057872    2.5342076    0.4141706 
C     0.9087179    3.2215830   -0.5877894 
C     0.4414942    2.5642149   -1.6749056 
C     1.6430059    1.1874185    0.3293512 
C     1.1745580    0.5177817   -0.7616917 
C     0.5748515    1.2173964   -1.7664923 
O     0.7678073    4.6034050   -0.4971086 
H     1.5770359    5.0748994   -0.8860159 
H     0.1985711    0.7056989   -2.6490213 
H     2.1282591    0.6502617    1.1407466 
H     1.8707709    3.0690464    1.2847498 
H    -0.0414498    3.1222693   -2.4706488 
C     1.3423664   -0.9845871   -0.8639011 
C     2.7692333   -1.3805799   -1.2994941 
H     0.6001013   -1.4115511   -1.5754533 
H     1.1187218   -1.4348130    0.1300124 
C     2.9448742   -2.8871914   -1.1667777 
O     3.7237462   -3.3958632   -0.1306951 
O     2.3253375   -3.7807130   -2.0471915 
H     1.7695612   -3.3144872   -2.7539695 
N     3.0295758   -0.9460986   -2.6792004 
H     3.5031864   -0.8814739   -0.6247401 
H     3.0884739    0.0978614   -2.6958439 
H     3.9811168   -1.2805119   -2.9616625 
