24
Energy =
C     2.1556000    2.6170189   -0.3491189 
C     0.8544008    2.9718591   -0.2437431 
C    -0.1139848    2.0342590   -0.3565843 
C     2.4942567    1.3193283   -0.5585739 
C     1.5249188    0.3675835   -0.6663597 
C     0.2164461    0.7344832   -0.5665006 
O     0.5110381    4.3029013   -0.0291822 
H     0.4678607    4.5072509    0.9631247 
H    -0.5727824   -0.0070132   -0.6601067 
H     3.5445088    1.0520721   -0.6435103 
H     2.9207201    3.3817280   -0.2701343 
H    -1.1540070    2.3346804   -0.2833732 
C     1.8915736   -1.0830934   -0.8958667 
C     1.6988700   -1.9439066    0.3786853 
H     2.9449948   -1.1816579   -1.2486606 
H     1.2593903   -1.4779005   -1.7232230 
C     1.7762754   -3.4230850    0.0418846 
O     2.9547015   -3.9805013   -0.4377441 
O     0.6368428   -4.2157637    0.1187421 
H     0.0400523   -4.0190269   -0.6705567 
N     2.6923810   -1.5975059    1.4184852 
H     0.6660085   -1.7931429    0.7722562 
H     3.2843559   -0.7747909    1.1606524 
H     2.2047041   -1.3543385    2.3126269 
