24
Energy =
C     1.9651795    2.7250076    0.3269621 
C     1.0680608    3.2834854   -0.5160599 
C     0.3123934    2.4865683   -1.3172768 
C     2.1156593    1.3783567    0.3767936 
C     1.3602044    0.5731911   -0.4218515 
C     0.4555983    1.1377498   -1.2690959 
O     0.9425538    4.6761081   -0.5378197 
H     0.2684019    5.0219265   -1.2121886 
H    -0.1514381    0.5161935   -1.9221025 
H     2.8469062    0.9520537    1.0580167 
H     2.5646744    3.3698268    0.9597920 
H    -0.4048193    2.9269097   -2.0011593 
C     1.5354081   -0.9323906   -0.3780980 
C     2.5118426   -1.4725369   -1.4556427 
H     0.5437466   -1.4246325   -0.4916703 
H     1.9009956   -1.2390561    0.6274378 
C     1.9790894   -1.3019459   -2.8730998 
O     2.1797278   -0.1212793   -3.5783755 
O     1.1865033   -2.2940004   -3.4381870 
H     0.2526136   -2.2271600   -3.0634738 
N     3.8598111   -0.8980192   -1.2890114 
H     2.5924227   -2.5757279   -1.3236957 
H     3.8522820    0.1197406   -1.5425857 
H     4.1680966   -0.9758939   -0.2918383 
