24
Energy =
C     1.1448055    2.1775644    0.8311622 
C     0.3193479    2.8893517    0.0292461 
C     0.0042444    2.4240551   -1.2013979 
C     1.6530897    0.9923587    0.4072160 
C     1.3399318    0.5178445   -0.8305569 
C     0.5085622    1.2398643   -1.6323030 
O    -0.2009225    4.1032645    0.4675220 
H    -1.0761393    3.9616151    0.9594475 
H     0.2463366    0.8770657   -2.6230704 
H     2.3099447    0.4271999    1.0643432 
H     1.3959711    2.5671868    1.8116589 
H    -0.6509939    3.0085943   -1.8384562 
C     1.8909795   -0.8083500   -1.3045848 
C     0.8775391   -1.9602156   -1.1282876 
H     2.8272733   -1.0681721   -0.7583137 
H     2.1830322   -0.7182863   -2.3754204 
C     1.3286373   -3.2132669   -1.8691743 
O     0.3831187   -4.1444585   -2.2848947 
O     2.6751727   -3.4513047   -2.1281574 
H     2.7667418   -4.3443265   -2.5945936 
N     0.6915448   -2.2252768    0.3098336 
H    -0.0948612   -1.6741324   -1.5931990 
H     0.1564706   -1.4333602    0.7371565 
H     0.0822218   -3.0704352    0.4280686 
