24
Energy =
C     0.8019920    2.3552714    0.7750283 
C     0.1134898    2.7974852   -0.3111705 
C    -0.0431453    1.9836492   -1.3799904 
C     1.3281357    1.1044343    0.7863215 
C     1.1664956    0.2830946   -0.2874130 
C     0.4806636    0.7317248   -1.3740580 
O    -0.4397725    4.0813035   -0.3560803 
H    -0.2832547    4.6282274    0.4836021 
H     0.3510734    0.0944392   -2.2457760 
H     1.8786205    0.7660602    1.6607411 
H     0.9344703    3.0011837    1.6362098 
H    -0.5920499    2.3492590   -2.2409958 
C     1.7677936   -1.1045198   -0.2813011 
C     3.2720025   -1.0914407   -0.6375500 
H     1.2350757   -1.7720180   -0.9962630 
H     1.6139881   -1.5643460    0.7218305 
C     3.9426710   -2.4212661   -0.3061724 
O     5.3221874   -2.5472353   -0.4265786 
O     3.2058300   -3.5035243    0.1662147 
H     3.8319554   -4.2864791    0.3058515 
N     3.4218203   -0.7540199   -2.0649500 
H     3.7992724   -0.3363323   -0.0095369 
H     3.1828571    0.2556628   -2.2050727 
H     4.4306012   -0.8425549   -2.3376378 
