24
Energy =
C     2.4057832    2.6092926    0.2566525 
C     1.3361727    3.2520395   -0.2663647 
C     0.3365776    2.5450061   -0.8416985 
C     2.4744235    1.2542415    0.2160334 
C     1.4640769    0.5347204   -0.3477012 
C     0.3976008    1.1896824   -0.8851326 
O     1.2692912    4.6412931   -0.2223551 
H     0.8280766    4.9513760    0.6362826 
H    -0.4053018    0.6339112   -1.3629157 
H     3.3434428    0.7515846    0.6329726 
H     3.2074385    3.1898949    0.6996255 
H    -0.5069015    3.0726601   -1.2740025 
C     1.5479726   -0.9740439   -0.4148120 
C     2.2513053   -1.4454643   -1.7021952 
H     0.5299430   -1.4225674   -0.3637349 
H     2.0938938   -1.3562469    0.4771918 
C     2.5805952   -2.9267999   -1.6276764 
O     3.9000149   -3.3530019   -1.7109745 
O     1.5686518   -3.8655364   -1.4678305 
H     1.9812021   -4.7897494   -1.4428110 
N     1.4033774   -1.1254851   -2.8650231 
H     3.2284873   -0.9148756   -1.7961042 
H     1.9302390   -1.3500378   -3.7426385 
H     0.5626322   -1.7531467   -2.8615979 
