24
Energy =
C     2.8567572    1.9947871    0.3988826 
C     1.8244196    2.7578103    0.8479791 
C     0.5517591    2.3557228    0.6296531 
C     2.6109571    0.8377911   -0.2665240 
C     1.3298547    0.4360554   -0.4938373 
C     0.3002139    1.2008864   -0.0361935 
O     2.0433965    3.9560740    1.5351854 
H     3.0227595    4.1835077    1.6688237 
H    -0.7305486    0.8910736   -0.1934514 
H     3.4463322    0.2351863   -0.6141366 
H     3.8808995    2.3069926    0.5730750 
H    -0.2636349    2.9684479    0.9984358 
C     1.0574694   -0.8660380   -1.2167905 
C     1.1418818   -2.0806772   -0.2719355 
H     1.7899350   -0.9867888   -2.0444669 
H     0.0535999   -0.8495255   -1.7005658 
C     0.0715684   -2.0366726    0.8121584 
O    -1.2302597   -1.6351390    0.5262178 
O     0.3869539   -2.4398285    2.1031161 
H    -0.4416978   -2.3632656    2.6791385 
N     1.0422257   -3.3066591   -1.0837033 
H     2.1201625   -2.0643709    0.2647170 
H     1.9257175   -3.4287789   -1.6317219 
H     0.9809268   -4.1385223   -0.4463358 
