24
Energy =
C     1.6080424    2.6150733   -0.4496582 
C     0.3665190    2.9027623    0.0032566 
C    -0.5409419    1.9021223    0.1566429 
C     1.9515616    1.3371555   -0.7507942 
C     1.0446823    0.3324330   -0.6055112 
C    -0.2039025    0.6227984   -0.1457885 
O     0.0512384    4.2320739    0.3034864 
H    -0.8918320    4.3677455    0.6511178 
H    -0.9391938   -0.1674251   -0.0109159 
H     2.9562921    1.1251807   -1.1071450 
H     2.3247123    3.4212192   -0.5647780 
H    -1.5365706    2.1226503    0.5248459 
C     1.4369436   -1.0959797   -0.9193117 
C     2.1892954   -1.7604781    0.2612438 
H     2.0847113   -1.0988742   -1.8240095 
H     0.5382947   -1.7022477   -1.1790102 
C     1.3131366   -1.8824927    1.5133403 
O    -0.0347306   -2.2095401    1.3931000 
O     1.8411401   -1.6971502    2.7927155 
H     2.8412263   -1.5685883    2.7720845 
N     2.7052293   -3.0876099   -0.1346048 
H     3.0445482   -1.0962954    0.5262136 
H     2.5396775   -3.3072759   -1.1454652 
H     3.7403813   -3.1299163    0.0195641 
