24
Energy =
C     2.3999769    2.1983665   -0.7130655 
C     1.3225880    2.9713698   -0.4115313 
C     0.1261727    2.3870001   -0.1760607 
C     2.2736442    0.8489267   -0.7797287 
C     1.0685358    0.2589713   -0.5465434 
C    -0.0063245    1.0384269   -0.2448738 
O     1.4173581    4.3654962   -0.3399578 
H     2.3523250    4.7222413   -0.5032391 
H    -0.9739633    0.5877352   -0.0393219 
H     3.1436351    0.2414602   -1.0166159 
H     3.3650269    2.6564152   -0.8997601 
H    -0.7229859    3.0125366    0.0743055 
C     0.9367910   -1.2482652   -0.6250474 
C     1.5674773   -1.9650808    0.5991545 
H     1.4231191   -1.5815037   -1.5662861 
H    -0.1283299   -1.5597210   -0.7145910 
C     0.6379322   -1.9332978    1.8219130 
O    -0.1757011   -0.8348847    2.0501307 
O     0.6182837   -2.9461534    2.7690584 
H     1.2667600   -3.6468067    2.4176002 
N     1.9107194   -3.3440768    0.2148511 
H     2.5005556   -1.4471720    0.9168435 
H     2.5127196   -3.3469577   -0.6496706 
H     2.5194700   -3.7266771    0.9710267 
