24
Energy =
C     1.4803262    2.7305479    0.1244541 
C     0.3823142    3.0266639   -0.6205719 
C    -0.2480708    2.0431987   -1.3016054 
C     1.9379350    1.4539489    0.1866873 
C     1.3007626    0.4604370   -0.4924345 
C     0.2049616    0.7653734   -1.2420285 
O    -0.1171972    4.3302212   -0.7032262 
H     0.4211742    5.0126613   -0.1810167 
H    -0.3109222   -0.0075759   -1.8068690 
H     2.8260916    1.2302318    0.7717775 
H     1.9975600    3.5144090    0.6672215 
H    -1.1176073    2.2933471   -1.8996708 
C     1.8186644   -0.9648943   -0.4305122 
C     3.0399134   -1.1963392   -1.3455124 
H     1.0122226   -1.6797335   -0.7104878 
H     2.0944135   -1.2119375    0.6175221 
C     2.7198409   -0.9107075   -2.8152894 
O     1.4857571   -1.2773861   -3.3453036 
O     3.6902167   -0.4002687   -3.6715490 
H     3.2932469   -0.3076716   -4.5974968 
N     4.1791831   -0.4127442   -0.8246046 
H     3.2949163   -2.2805401   -1.3147535 
H     4.6038717   -0.9270356   -0.0181727 
H     4.9301454   -0.3553214   -1.5574654 
