24
Energy =
C     1.7659114    2.5830888    0.5531270 
C     0.4095672    2.6737951    0.5702898 
C    -0.3364282    1.5973047    0.2328177 
C     2.3678045    1.4167561    0.2061599 
C     1.6170257    0.3300653   -0.1267149 
C     0.2596265    0.4302545   -0.1199807 
O    -0.2423600    3.8581312    0.9287230 
H     0.3764551    4.6308256    1.1473629 
H    -0.3590313   -0.4192661   -0.3984497 
H     3.4553801    1.3588212    0.1792838 
H     2.3680187    3.4464916    0.8117719 
H    -1.4184759    1.6818128    0.2425162 
C     2.2861915   -0.9628997   -0.5429062 
C     2.6194194   -0.9773966   -2.0530052 
H     1.6232038   -1.8216538   -0.2980838 
H     3.2196484   -1.1182999    0.0448905 
C     3.6162864    0.1054978   -2.4165428 
O     4.8328312    0.2011703   -1.7474237 
O     3.2909152    1.0600289   -3.3688159 
H     4.0880478    1.6678835   -3.5061379 
N     3.1199013   -2.3088311   -2.4390805 
H     1.7054956   -0.7407308   -2.6488782 
H     4.0219918   -2.5063696   -1.9405850 
H     2.4319978   -3.0517469   -2.1746535 
