24
Energy =
C     2.1062758    2.6594021    0.0214873 
C     0.8886081    3.0775266    0.4606625 
C    -0.1347814    2.1921125    0.5377768 
C     2.2806101    1.3638345   -0.3337635 
C     1.2616009    0.4769847   -0.2737317 
C     0.0479258    0.8934592    0.1784370 
O     0.6605552    4.4049303    0.8381419 
H     1.4720809    5.0078376    0.7614544 
H    -0.7807837    0.1951232    0.2604310 
H     3.2785723    0.8956574   -0.7455686 
H     2.9351593    3.3537281   -0.0467771 
H    -1.1009145    2.5329042    0.8956821 
C     1.5222516   -0.9793225   -0.6302092 
C     2.4083015   -1.1857130   -1.8966898 
H     0.5498724   -1.4962793   -0.7884424 
H     2.0065687   -1.4816978    0.2369680 
C     3.8832641   -0.7548877   -1.7044907 
O     4.2183906    0.4715901   -1.1264658 
O     4.9176284   -1.5261824   -2.2102584 
H     5.7942552   -1.0695494   -1.9972159 
N     2.2965881   -2.6022038   -2.2898288 
H     2.0190326   -0.5422975   -2.7197159 
H     1.3313832   -2.7878960   -2.6501891 
H     2.9441387   -2.7984061   -3.0909411 
