24
Energy =
C     0.9989676    2.2583068    0.4043188 
C     0.5947620    2.9604720   -0.6794540 
C     0.5786233    2.3741913   -1.8984961 
C     1.3988327    0.9679067    0.2709911 
C     1.3955280    0.3740353   -0.9550943 
C     0.9758636    1.0839788   -2.0398100 
O     0.1842006    4.2822504   -0.5391616 
H     0.9713368    4.9142586   -0.6357476 
H     0.9524936    0.6235666   -3.0246024 
H     1.7106215    0.4115248    1.1521973 
H     0.9912576    2.7365895    1.3778475 
H     0.2394574    2.9439914   -2.7573449 
C     1.8192640   -1.0702383   -1.1073839 
C     0.6127117   -2.0314368   -1.1059701 
H     2.5122227   -1.3654224   -0.2861193 
H     2.3989094   -1.1843900   -2.0510672 
C     1.0250097   -3.4178696   -1.5732197 
O     2.2989891   -3.9145685   -1.3146480 
O     0.1141824   -4.2097293   -2.2596213 
H     0.5474413   -5.1006614   -2.4677258 
N     0.0257704   -2.0708247    0.2460136 
H    -0.1475378   -1.6842490   -1.8451516 
H    -0.5080796   -1.1854794    0.4108050 
H    -0.6884388   -2.8387427    0.2887613 
