24
Energy =
C     1.5545696    2.6389428   -0.2553498 
C     0.2281516    2.8037835   -0.0441650 
C    -0.6018801    1.7363898   -0.0875003 
C     2.0548797    1.4057554   -0.5224921 
C     1.2232216    0.3284139   -0.5828001 
C    -0.1094649    0.5003334   -0.3553445 
O    -0.2810375    4.0698245    0.2276384 
H    -0.5226501    4.5519415   -0.6310389 
H    -0.7875240   -0.3506151   -0.3762290 
H     3.1233935    1.2866140   -0.6830304 
H     2.2103872    3.5010633   -0.2007002 
H    -1.6609313    1.8780331    0.1013481 
C     1.7822063   -1.0511248   -0.8587115 
C     2.2924980   -1.7379916    0.4190988 
H     2.6172495   -0.9765784   -1.5898954 
H     1.0151678   -1.7001895   -1.3401866 
C     1.1676035   -1.9682098    1.4223574 
O    -0.0117823   -2.5993501    1.0384215 
O     1.3200172   -1.5582144    2.7401368 
H     0.4827141   -1.7959129    3.2562624 
N     2.9674165   -2.9889262    0.0129094 
H     3.0178887   -1.0603556    0.9299826 
H     3.9944625   -2.9092542    0.2008773 
H     2.6274930   -3.8081637    0.5739733 
