24
Energy =
C     0.9211221    2.7134435   -0.6450732 
C    -0.1231458    2.7059459    0.2152282 
C    -0.5133332    1.5480731    0.7958279 
C     1.5756730    1.5598907   -0.9333851 
C     1.1886500    0.3900073   -0.3527883 
C     0.1361606    0.3901619    0.5120041 
O    -0.7931438    3.8896861    0.5079097 
H    -1.5556896    4.0379737   -0.1439897 
H    -0.1905483   -0.5341039    0.9814715 
H     2.4074531    1.5799542   -1.6338834 
H     1.2268901    3.6494824   -1.0993694 
H    -1.3477706    1.5575042    1.4890811 
C     1.8973040   -0.9039510   -0.6882758 
C     1.1511665   -1.7044780   -1.7751649 
H     1.9925692   -1.5182107    0.2336337 
H     2.9391165   -0.7073089   -1.0336087 
C     1.1076269   -0.9598658   -3.1054427 
O    -0.0564015   -0.9756971   -3.8666411 
O     2.2249145   -0.2865467   -3.5908639 
H     2.0043643    0.0954061   -4.5007866 
N     1.8022126   -3.0180138   -1.9153103 
H     0.0897709   -1.8468146   -1.4633771 
H     1.6477920   -3.5754421   -1.0423863 
H     1.3344454   -3.5543173   -2.6854263 
