24
Energy =
C     2.3835606    2.3671939    0.5061775 
C     1.1741495    2.9039956    0.7891452 
C     0.0442175    2.2389310    0.4564263 
C     2.4674682    1.1672693   -0.1234328 
C     1.3338975    0.4996485   -0.4764985 
C     0.1197720    1.0389414   -0.1741218 
O     1.0921211    4.1362090    1.4302468 
H     1.0904453    4.8916641    0.7543387 
H    -0.7968595    0.5081997   -0.4238820 
H     3.4458326    0.7446689   -0.3375605 
H     3.2805462    2.9035930    0.7955440 
H    -0.9191497    2.6708062    0.7066899 
C     1.4246230   -0.8474874   -1.1601253 
C     1.5577580   -2.0055034   -0.1423550 
H     2.3023294   -0.8506480   -1.8436822 
H     0.5268951   -1.0199947   -1.7972510 
C     0.3355304   -2.0940977    0.7642946 
O     0.4808720   -2.0429662    2.1451127 
O    -0.9362119   -2.2345189    0.2192923 
H    -1.6055884   -2.2993292    0.9760012 
N     1.8443107   -3.2835754   -0.8412709 
H     2.4137122   -1.7864619    0.5373909 
H     1.0842107   -3.9869392   -0.6692658 
H     1.8902547   -3.1732695   -1.8813262 
