24
Energy =
C     0.9184908    2.4482933    0.2480075 
C     0.2132483    2.9123222   -0.8092957 
C     0.0265187    2.1275172   -1.8949926 
C     1.4467310    1.1979561    0.2206117 
C     1.2656737    0.4027476   -0.8709279 
C     0.5513899    0.8764402   -1.9301965 
O    -0.3271785    4.1941179   -0.7769659 
H     0.3377589    4.8723107   -1.1321904 
H     0.3937694    0.2579146   -2.8102984 
H     2.0108535    0.8411455    1.0785903 
H     1.0507940    3.0855301    1.1156462 
H    -0.5488405    2.5075243   -2.7326246 
C     1.8422087   -0.9961008   -0.9088559 
C     0.7540749   -2.0864114   -0.7324078 
H     2.6260807   -1.1361278   -0.1292226 
H     2.3650365   -1.1388270   -1.8816772 
C     1.3011432   -3.4638556   -1.0684219 
O     0.4813905   -4.4084928   -1.6768578 
O     2.6260506   -3.7906068   -0.7942201 
H     2.7809536   -4.7570609   -1.0496679 
N     0.1945757   -2.0735463    0.6369203 
H    -0.0564697   -1.9119764   -1.4789570 
H     0.5818959   -1.3035861    1.2290820 
H    -0.8413320   -1.9253477    0.5920979 
