24
Energy =
C     1.6005330    2.6571128   -0.2505722 
C     0.3036127    2.8236414    0.1216830 
C    -0.5194552    1.7522701    0.1729444 
C     2.0651335    1.4225504   -0.5719380 
C     1.2359034    0.3424654   -0.5262858 
C    -0.0604581    0.5161308   -0.1472930 
O    -0.2075336    4.0818195    0.4557043 
H     0.4761877    4.8294244    0.4100901 
H    -0.7340676   -0.3343150   -0.0884841 
H     3.1080564    1.3038440   -0.8581125 
H     2.2700931    3.5097544   -0.2880728 
H    -1.5496133    1.8969906    0.4788318 
C     1.7528451   -1.0416864   -0.8719817 
C     2.2267320   -1.8293870    0.3694980 
H     2.5879747   -0.9655375   -1.6044056 
H     0.9524617   -1.6186404   -1.3841475 
C     3.4308103   -1.1751762    1.0453304 
O     4.4149666   -0.5573859    0.2793571 
O     3.6352307   -1.3031316    2.4140162 
H     4.4962974   -0.8315341    2.6591269 
N     1.0811201   -2.0206363    1.2810858 
H     2.6012453   -2.8221968    0.0303426 
H     0.4673915   -2.7795256    0.9048837 
H     1.4247875   -2.3552518    2.2153071 
