24
Energy =
C     1.0528466    2.5595910   -0.4019672 
C     0.4444056    2.4003467    0.8036470 
C     0.2957259    1.1590773    1.3183276 
C     1.5143431    1.4792296   -1.0813712 
C     1.3729845    0.2290592   -0.5599104 
C     0.7532190    0.0749920    0.6425326 
O    -0.0355881    3.4921144    1.5343992 
H     0.0791215    4.3828774    1.0626978 
H     0.6141432   -0.9168198    1.0637075 
H     1.9787685    1.6220953   -2.0542755 
H     1.1651795    3.5498283   -0.8300570 
H    -0.2006117    1.0466433    2.2757255 
C     1.8706659   -0.9820302   -1.3210623 
C     0.7366457   -1.7239549   -2.0548117 
H     2.3672313   -1.6761755   -0.6089915 
H     2.6528413   -0.6927828   -2.0578334 
C     0.1333416   -0.8512433   -3.1574403 
O    -0.7490616    0.1616877   -2.8260176 
O     0.4809462   -1.0059690   -4.4905542 
H     0.9169651   -1.9148008   -4.5499176 
N     1.2815201   -2.9879230   -2.5804144 
H    -0.0920992   -1.9499897   -1.3439745 
H     1.5073498   -3.6259185   -1.7754297 
H     0.5236421   -3.4719968   -3.1122068 
