24
Energy =
C     1.0903129    2.6118226   -0.8797934 
C    -0.1662889    2.8748240   -0.4322024 
C    -0.8714425    1.9031414    0.1889184 
C     1.6343208    1.3812018   -0.7013899 
C     0.9276797    0.4010098   -0.0722713 
C    -0.3325590    0.6713640    0.3701172 
O    -0.7553591    4.1319854   -0.5960374 
H    -0.1705918    4.8007101   -1.0855586 
H    -0.9184137   -0.0964205    0.8682801 
H     2.6360047    1.1813205   -1.0743407 
H     1.6619220    3.3832416   -1.3847307 
H    -1.8749349    2.1235269    0.5364927 
C     1.5336086   -0.9777647    0.1166476 
C     1.3477535   -1.8849000   -1.1170241 
H     1.0934083   -1.4718606    1.0117429 
H     2.6210537   -0.8765760    0.3255997 
C    -0.1249924   -2.2035261   -1.3835109 
O    -0.5805563   -2.4702790   -2.6707659 
O    -1.0075470   -2.3579982   -0.3185549 
H    -1.9122328   -2.6333190   -0.6814092 
N     2.0601135   -1.2710923   -2.2608599 
H     1.8028479   -2.8741122   -0.8796296 
H     2.9150019   -1.8326900   -2.4842569 
H     1.4745380   -1.2759294   -3.1309002 
