24
Energy =
C     2.1013263    2.5508139    0.0374348 
C     0.8363347    2.9929314    0.2210969 
C    -0.2070646    2.1440519    0.0234466 
C     2.3339073    1.2687327   -0.3419624 
C     1.2923803    0.4169298   -0.5486751 
C     0.0191807    0.8618376   -0.3589982 
O     0.6381946    4.3209455    0.6133890 
H    -0.3348136    4.5753364    0.7447207 
H    -0.8265563    0.1927957   -0.5044596 
H     3.3581677    0.9305886   -0.4767597 
H     2.9259312    3.2361751    0.2019399 
H    -1.2240961    2.4878557    0.1749675 
C     1.5535334   -1.0199664   -0.9473434 
C     1.8443523   -1.9127939    0.2750872 
H     2.4157244   -1.0553373   -1.6486571 
H     0.6895714   -1.4392024   -1.5132492 
C     0.6227315   -2.0277612    1.1969247 
O    -0.6494743   -2.1757487    0.6535974 
O     0.7566284   -2.0274139    2.5863098 
H     1.7188839   -1.9502209    2.8782544 
N     2.2771720   -3.2327526   -0.2118820 
H     2.6725395   -1.4494174    0.8591893 
H     3.2321579   -3.1505898   -0.6339332 
H     2.3734482   -3.8936388    0.5968536 
