24
Energy =
C     1.6734322    2.6047698   -0.2967213 
C     0.4540032    2.8589929    0.2305177 
C    -0.4437218    1.8469430    0.3655281 
C     2.0047589    1.3489251   -0.6904499 
C     1.1059237    0.3343511   -0.5667724 
C    -0.1196052    0.5901007   -0.0303162 
O     0.1519534    4.1659031    0.6267042 
H    -0.7737976    4.2766215    1.0261600 
H    -0.8429030   -0.2131113    0.0977660 
H     2.9934532    1.1631746   -1.1026298 
H     2.3828849    3.4196542   -0.3950105 
H    -1.4199924    2.0396884    0.7960774 
C     1.4844047   -1.0732837   -0.9752415 
C     2.1634661   -1.8443783    0.1814362 
H     2.1738574   -1.0289059   -1.8480396 
H     0.5828979   -1.6322641   -1.3170424 
C     1.2133328   -1.9906014    1.3782412 
O     0.1409649   -2.8711331    1.2931513 
O     1.3434332   -1.2072633    2.5257172 
H     2.1184369   -0.5642924    2.4678725 
N     2.6859538   -3.1472163   -0.2994335 
H     3.0385124   -1.2508788    0.5275787 
H     2.2243483   -3.9522031    0.1923588 
H     2.5065633   -3.3048920   -1.3190800 
