24
Energy =
C     2.0244429    2.9226101   -0.8116843 
C     1.1459046    3.1203131   -1.8216825 
C     0.3077614    2.1258635   -2.1939608 
C     2.0551399    1.7326999   -0.1572061 
C     1.2038400    0.7323318   -0.5177040 
C     0.3361806    0.9323162   -1.5480873 
O     1.1114566    4.3431889   -2.4850117 
H     0.4738664    4.9837739   -2.0253719 
H    -0.3370557    0.1396125   -1.8636940 
H     2.7788791    1.5749014    0.6427087 
H     2.7073241    3.7220730   -0.5441291 
H    -0.3793270    2.2911139   -3.0170036 
C     1.2541122   -0.6025742    0.1922884 
C     2.3250594   -1.5383198   -0.4100236 
H     0.2573739   -1.0948133    0.1388135 
H     1.4516604   -0.4521705    1.2776989 
C     3.7303198   -0.9493612   -0.2804103 
O     4.4082710   -0.5489817   -1.4245015 
O     4.3260726   -0.7364496    0.9630593 
H     3.7880157   -1.1745585    1.6981319 
N     2.2212151   -2.8493865    0.2536943 
H     2.1391688   -1.6521874   -1.5051663 
H     1.3104800   -3.2975448   -0.0051731 
H     2.9696930   -3.4847857   -0.1153252 
