24
Energy =
C     2.4643305    2.2963191    0.6235047 
C     1.2638197    2.9155337    0.7030402 
C     0.1533795    2.3020259    0.2336728 
C     2.5610049    1.0640001    0.0620354 
C     1.4500295    0.4469388   -0.4287458 
C     0.2419869    1.0709731   -0.3309645 
O     1.1699150    4.1792870    1.2769546 
H     1.3145514    4.9019084    0.5806498 
H    -0.6615816    0.5838467   -0.6929457 
H     3.5309732    0.5754640    0.0120039 
H     3.3428759    2.7934879    1.0205771 
H    -0.8069632    2.7995090    0.3215334 
C     1.5527009   -0.9359249   -1.0362234 
C     1.3550453   -2.0432094    0.0174693 
H     2.5500647   -1.0638624   -1.5136704 
H     0.8056486   -1.0548011   -1.8531997 
C    -0.0601516   -2.0529053    0.5823708 
O    -0.2570564   -2.1308329    1.9526803 
O    -1.1665627   -2.0079607   -0.2580899 
H    -1.3107921   -2.9238209   -0.6563030 
N     1.7308067   -3.3349787   -0.5849269 
H     2.0290501   -1.8386375    0.8833765 
H     1.6659646   -4.0883374    0.1424152 
H     1.0563070   -3.5853536   -1.3467477 
