24
Energy =
C     1.5127498    2.6176460    0.0365976 
C     0.1629296    2.7675169    0.0923193 
C    -0.6377549    1.7108740   -0.1726435 
C     2.0529422    1.4139274   -0.2824826 
C     1.2481555    0.3454628   -0.5431063 
C    -0.1035395    0.5045121   -0.4912506 
O    -0.4261328    3.9946561    0.4142704 
H     0.2409627    4.7316070    0.6149787 
H    -0.7677681   -0.3277530   -0.7055697 
H     3.1354044    1.3112993   -0.3253932 
H     2.1630997    3.4598305    0.2468893 
H    -1.7128495    1.8449088   -0.1264308 
C     1.8524184   -1.0008033   -0.8984727 
C     2.3398041   -1.8128722    0.3329602 
H     2.7124343   -0.8383220   -1.5882527 
H     1.1237657   -1.6138383   -1.4733495 
C     3.4135528   -1.0776385    1.1212590 
O     4.6303370   -0.7895560    0.5106472 
O     3.2034846   -0.6529437    2.4272442 
H     4.0403602   -0.1962020    2.7603552 
N     1.2145034   -2.2377714    1.1935663 
H     2.8642106   -2.7158488   -0.0575897 
H     0.2882314   -1.9053632    0.8438739 
H     1.1710054   -3.2822593    1.2391582 
