24
Energy =
C     1.9119138    2.8952537   -0.4612580 
C     0.9749456    3.2066106   -1.3959941 
C     0.1658742    2.2367978   -1.8797353 
C     2.0299545    1.6186758   -0.0114556 
C     1.2105177    0.6439838   -0.4928883 
C     0.2826201    0.9591817   -1.4371735 
O     0.8237456    4.5110647   -1.8765929 
H     1.4751289    5.1826712   -1.4864738 
H    -0.3711084    0.1927114   -1.8463266 
H     2.7940684    1.3711036    0.7256680 
H     2.5692161    3.6686937   -0.0797092 
H    -0.5746910    2.4935087   -2.6305512 
C     1.3567607   -0.7842641   -0.0136763 
C     2.3859704   -1.5727559   -0.8575159 
H     0.3687316   -1.2930817   -0.0576443 
H     1.6677691   -0.8067012    1.0560750 
C     3.7957885   -1.0170301   -0.7146136 
O     4.6391046   -0.9532457   -1.8166736 
O     4.2566313   -0.5508058    0.5158244 
H     5.2448511   -0.3443837    0.4240222 
N     2.3422527   -2.9974852   -0.4867448 
H     2.1310142   -1.4767941   -1.9382887 
H     2.5916599   -3.1070836    0.5258768 
H     1.3780744   -3.3795957   -0.6276428 
