24
Energy =
C     1.5637905    2.6058405   -0.1640648 
C     0.2475108    2.8125467    0.0717929 
C    -0.6267977    1.7848088   -0.0235522 
C     2.0122125    1.3668050   -0.4909742 
C     1.1371593    0.3280690   -0.5921606 
C    -0.1864004    0.5431777   -0.3505263 
O    -0.2081035    4.0834893    0.4065998 
H    -0.1656798    4.2284958    1.4094685 
H    -0.8996728   -0.2771893   -0.4125923 
H     3.0729374    1.2139692   -0.6741041 
H     2.2511697    3.4418282   -0.0919837 
H    -1.6806655    1.9647125    0.1631220 
C     1.6362692   -1.0594747   -0.9308216 
C     2.1508740   -1.8120347    0.3198809 
H     2.4543825   -0.9809118   -1.6814271 
H     0.8268934   -1.6557068   -1.4127027 
C     1.0542752   -1.9676237    1.3680513 
O    -0.0463267   -2.7760991    1.1174802 
O     1.1095990   -1.2493610    2.5543748 
H     0.8245786   -0.2982855    2.3750620 
N     2.7623658   -3.1076943   -0.0689784 
H     2.9380950   -1.1980496    0.8154884 
H     2.2395634   -3.9158742    0.3524378 
H     2.7377213   -3.2723449   -1.1029287 
