24
Energy =
C     1.4131226    2.7830590    0.0236231 
C     0.2980176    3.0100412   -0.7076323 
C    -0.3345959    1.9801458   -1.3145293 
C     1.9026802    1.5227820    0.1470112 
C     1.2728807    0.4792047   -0.4613570 
C     0.1502236    0.7177647   -1.1970765 
O    -0.2009790    4.3025940   -0.8311279 
H     0.2273724    4.7752295   -1.6196501 
H    -0.3623788   -0.0972978   -1.7029731 
H     2.8079521    1.3520952    0.7233554 
H     1.9081596    3.6190377    0.5057310 
H    -1.2289499    2.1743056   -1.8972881 
C     1.8280850   -0.9276111   -0.3379753 
C     3.0306557   -1.1770366   -1.2727315 
H     1.0331609   -1.6754480   -0.5583439 
H     2.1367009   -1.1117030    0.7138140 
C     2.6654571   -0.9708279   -2.7451556 
O     1.4353838   -1.4098651   -3.2269608 
O     3.5916149   -0.4562335   -3.6467768 
H     3.1707390   -0.4267715   -4.5662806 
N     4.1643124   -0.3434568   -0.8219146 
H     3.3116759   -2.2525026   -1.1959820 
H     4.6179502   -0.8047511    0.0006773 
H     4.8968431   -0.3117097   -1.5746529 
