24
Energy =
C     1.3841334    2.4220639   -0.3242124 
C     0.3723904    2.6145811    0.5633811 
C    -0.2698924    1.5461521    1.0861375 
C     1.7485591    1.1643332   -0.6810133 
C     1.1059982    0.0857514   -0.1527031 
C     0.0905789    0.2864991    0.7334013 
O    -0.0258665    3.8965502    0.9553733 
H     0.4915110    4.6439348    0.5057752 
H    -0.4434472   -0.5576499    1.1618871 
H     2.5514625    1.0261966   -1.4003571 
H     1.9014583    3.2729588   -0.7539345 
H    -1.0795412    1.7129019    1.7881720 
C     1.5076323   -1.3198288   -0.5614584 
C     0.8210822   -1.7835579   -1.8656343 
H     1.2745095   -2.0374466    0.2571442 
H     2.6101174   -1.3625346   -0.6974066 
C    -0.6959858   -1.8912822   -1.7163411 
O    -1.2531809   -2.3188158   -0.5145418 
O    -1.5326628   -1.7035514   -2.8108460 
H    -2.4912833   -1.8467104   -2.5202749 
N     1.2360602   -0.8917085   -2.9669035 
H     1.1540896   -2.8239307   -2.0849923 
H     2.2060438   -1.1436624   -3.2668802 
H     0.6191460   -1.0493438   -3.8021845 
