24
Energy =
C     1.6854077    2.6289017   -0.0056862 
C     0.3775702    2.8403049    0.3016737 
C    -0.5075878    1.8236837    0.1923644 
C     2.0989983    1.4055553   -0.4230879 
C     1.2065978    0.3841489   -0.5436696 
C    -0.1000122    0.5989605   -0.2257481 
O    -0.0819706    4.0891800    0.7317689 
H     0.6429882    4.7949424    0.8031110 
H    -0.8244074   -0.2100119   -0.2938147 
H     3.1490370    1.2489487   -0.6570334 
H     2.4036910    3.4366608    0.0848932 
H    -1.5460988    2.0021559    0.4494546 
C     1.6712832   -0.9880125   -0.9843044 
C     2.2000022   -1.8289593    0.2023086 
H     2.4751541   -0.8758018   -1.7454326 
H     0.8397849   -1.5367120   -1.4833383 
C     1.1221799   -2.0408926    1.2574178 
O    -0.0356241   -2.7492168    0.9524085 
O     1.2713622   -1.4955545    2.5251331 
H     0.4636727   -1.7412303    3.0827520 
N     2.7898029   -3.1023236   -0.2830762 
H     3.0011239   -1.2540404    0.7224945 
H     2.2731497   -3.9306755    0.1033690 
H     2.7339811   -3.2014124   -1.3240281 
