24
Energy =
C     0.8395647    1.8605389    1.2319163 
C    -0.5002539    1.6521516    1.1608040 
C    -0.9997065    0.8479046    0.1979595 
C     1.6711058    1.2614968    0.3431498 
C     1.1780863    0.4383069   -0.6260450 
C    -0.1745721    0.2446847   -0.6946436 
O    -1.3852998    2.2519078    2.0619668 
H    -0.9357495    2.8480232    2.7487358 
H    -0.6264767   -0.3854922   -1.4499429 
H     2.7403292    1.4496427    0.4136676 
H     1.2498603    2.5097470    1.9982360 
H    -2.0728099    0.6958373    0.1490998 
C     2.1709452   -0.1820713   -1.6051979 
C     1.6629995   -1.3492001   -2.4840194 
H     3.0386515   -0.5533320   -1.0159570 
H     2.5733418    0.6185385   -2.2679922 
C     0.7750907   -0.8492648   -3.6177513 
O     1.1960821    0.1658565   -4.4685095 
O    -0.4816491   -1.4089211   -3.8051556 
H    -0.9058222   -0.9780323   -4.6178492 
N     2.8346641   -2.0776552   -3.0044159 
H     1.0457684   -2.0444574   -1.8678840 
H     3.2535328   -2.6512613   -2.2352703 
H     2.5264921   -2.7601106   -3.7396402 
