24
Energy =
C     0.8841860    2.2981438    0.7241913 
C    -0.4280932    2.2844928    0.3891415 
C    -0.8905340    1.3408851   -0.4784992 
C     1.7344150    1.3801207    0.1939710 
C     1.2762193    0.4492559   -0.6704281 
C    -0.0404497    0.4209498   -1.0056058 
O    -1.2787341    3.2465721    0.9464026 
H    -2.2467127    3.1600163    0.6591807 
H    -0.4180657   -0.3355314   -1.6875411 
H     4.8248553    1.2651259    0.8706354 
H     1.2488391    3.0386723    1.4253595 
H    -1.9400927    1.3191774   -0.7475569 
C     2.2748956   -0.5489320   -1.1856653 
C     2.7792889   -1.4813224   -0.0629591 
H     3.1335183   -0.0027321   -1.6327516 
H     1.8339339   -1.1635732   -2.0016809 
C     3.2729125   -0.7884809    1.2247281 
O     3.7580944   -1.5889521    2.2514112 
O     3.2681421    0.6117611    1.4367070 
H     3.4703272    1.4967952    0.3633165 
N     1.7274848   -2.4767841    0.2135974 
H     3.6668861   -2.0212542   -0.4618772 
H     2.1117934   -3.2090455    0.8583072 
H     0.9456390   -2.0116613    0.7360808 
