24
Energy =
C     1.8856790    2.7318168    0.0271476 
C     0.6554828    3.1319571   -0.3686257 
C    -0.2489860    2.2198002   -0.7925439 
C     2.2140787    1.4150132    0.0066127 
C     1.3080927    0.4898307   -0.4168031 
C     0.0717554    0.9009694   -0.8161738 
O     0.3226358    4.4827775   -0.3475602 
H    -0.0690752    4.7409770    0.5514508 
H    -0.6678114    0.1814479   -1.1583257 
H     3.2058181    1.1081316    0.3294258 
H     2.6038865    3.4751396    0.3556123 
H    -1.2290361    2.5551474   -1.1153062 
C     1.6795390   -0.9771521   -0.4476318 
C     2.6631503   -1.3130480   -1.5979230 
H     0.7773302   -1.6252851   -0.5391451 
H     2.1409197   -1.2454503    0.5296687 
C     3.2210325   -2.7182840   -1.4444477 
O     4.5543207   -2.9745316   -1.7473475 
O     2.4146974   -3.7589570   -0.9923037 
H     2.9547619   -4.6143315   -0.9947549 
N     2.0229664   -1.1571391   -2.9217222 
H     3.5481221   -0.6386049   -1.5199907 
H     1.0476198   -0.7856675   -2.8597873 
H     2.5683847   -0.4717235   -3.4956355 
