24
Energy =
C     2.1463486    2.6408981    0.0798974 
C     0.8503365    2.9847744    0.2539347 
C    -0.1264829    2.0747090   -0.0023540 
C     2.4764616    1.3958607   -0.3471617 
C     1.5023897    0.4791754   -0.6038154 
C     0.1974767    0.8277712   -0.4298091 
O     0.5512762    4.2777154    0.6950321 
H    -0.4399280    4.4620236    0.8044684 
H    -0.5942523    0.1105919   -0.6324745 
H     3.5243170    1.1415709   -0.4813934 
H     2.9165104    3.3762331    0.2870394 
H    -1.1679748    2.3436304    0.1341610 
C     1.8591199   -0.9153112   -1.0753824 
C     1.6792065   -1.9808027    0.0385670 
H     2.9022340   -0.9567284   -1.4635804 
H     1.2096362   -1.1681261   -1.9448536 
C     1.7322048   -3.4031454   -0.5278599 
O     2.3257820   -3.6444487   -1.7615062 
O     1.2300023   -4.4830001    0.1962922 
H     0.8914426   -4.2004928    1.1051855 
N     2.6444024   -1.7761109    1.1467081 
H     0.6511754   -1.8765354    0.4523881 
H     3.2522515   -2.6198228    1.2903325 
H     3.3034587   -0.9851115    0.9625992 
