24
Energy =
C     1.3853560    2.5918315   -0.4175682 
C     0.0591582    2.7226257   -0.1829703 
C    -0.7385273    1.6301848   -0.1795536 
C     1.9205964    1.3648772   -0.6438712 
C     1.1230064    0.2609909   -0.6451109 
C    -0.2109543    0.4000888   -0.4056003 
O    -0.4855441    3.9814607    0.0488578 
H    -0.4452013    4.2149420    1.0348996 
H    -0.8632825   -0.4715311   -0.3905480 
H     2.9880071    1.2735969   -0.8279116 
H     2.0104368    3.4781893   -0.4261427 
H    -1.8015099    1.7489370    0.0041970 
C     1.7197909   -1.1108501   -0.8702751 
C     2.2850897   -1.7160136    0.4376964 
H     2.5296908   -1.0387525   -1.6300002 
H     0.9543426   -1.8016491   -1.2957853 
C     1.2044602   -1.8719519    1.4984224 
O     0.1065226   -2.6953114    1.2787427 
O     1.2513623   -1.1067080    2.6578265 
H     0.9435079   -0.1705183    2.4415103 
N     2.9412145   -3.0135168    0.1666379 
H     3.0260564   -1.0038059    0.8719878 
H     2.9542979   -3.2643274   -0.8503654 
H     3.9357737   -2.9910558    0.4941133 
