24
Energy =
C     2.0343601    2.6706944   -0.4795811 
C     0.7026609    2.9277106   -0.5752401 
C    -0.1669643    1.9026738   -0.7222452 
C     2.4880233    1.3926405   -0.5312658 
C     1.6131894    0.3590230   -0.6786832 
C     0.2807516    0.6225499   -0.7745148 
O     0.2022426    4.2327316   -0.5266646 
H     0.9148053    4.9450678   -0.4103609 
H    -0.4346715   -0.1876346   -0.8935860 
H     3.5556675    1.2048721   -0.4534833 
H     2.7392345    3.4865506   -0.3614105 
H    -1.2266536    2.1218306   -0.7970971 
C     2.1082667   -1.0708358   -0.7301319 
C     1.8304610   -1.8337045    0.5894972 
H     3.1971832   -1.1152815   -0.9591519 
H     1.6013196   -1.5871969   -1.5779987 
C     2.0066286   -3.3295174    0.3759152 
O     0.9022970   -4.1225779    0.0911361 
O     3.2717505   -3.9040526    0.3884752 
H     3.1812841   -4.8951529    0.2025183 
N     2.6516114   -1.3059022    1.7089010 
H     0.7559111   -1.7165765    0.8608702 
H     3.2863751   -2.0486636    2.0946093 
H     3.2881169   -0.5351306    1.4042126 
