24
Energy =
C     1.6762232    2.6731621   -0.0842184 
C     0.5274217    2.8501805    0.6212166 
C    -0.3261087    1.8131449    0.7801383 
C     1.9623442    1.4631842   -0.6281027 
C     1.0996888    0.4209303   -0.4770579 
C    -0.0442583    0.6005972    0.2390023 
O     0.2013314    4.0833355    1.1944720 
H     0.8918226    4.8090111    1.0350675 
H    -0.7392033   -0.2227079    0.3838729 
H     2.8898367    1.3287874   -1.1787098 
H     2.3706196    3.4964879   -0.2111447 
H    -1.2364786    1.9672696    1.3493824 
C     1.4293403   -0.9351007   -1.0621501 
C     2.2932194   -1.7689642   -0.0912974 
H     1.9543847   -0.8058805   -2.0343314 
H     0.4844882   -1.4790497   -1.2943958 
C     2.3064363   -3.2511995   -0.4598330 
O     1.8821907   -4.1808840    0.4799717 
O     2.7393875   -3.7054360   -1.7054662 
H     3.0126612   -2.9473815   -2.3109175 
N     3.6488597   -1.1905140   -0.0180875 
H     1.8228318   -1.7282709    0.9214065 
H     4.2034873   -1.6971255    0.7144331 
H     4.1532550   -1.3325884   -0.9248658 
