24
Energy =
C     2.3004472    2.0737991    1.5046484 
C     1.1904381    2.2061840    2.2654898 
C     0.0081001    1.7151237    1.8294650 
C     2.2332306    1.4416131    0.3052506 
C     1.0483964    0.9314431   -0.1370602 
C    -0.0668601    1.0782701    0.6327761 
O     1.2624801    2.8573455    3.4921416 
H     1.4854225    2.2010496    4.2328494 
H    -1.0261428    0.6927722    0.2973807 
H     3.1348357    1.3366623   -0.2961029 
H     3.2397151    2.4792165    1.8659050 
H    -0.8768668    1.8396034    2.4451967 
C     0.9738666    0.2143169   -1.4725131 
C     1.5003880   -1.2437290   -1.4225154 
H     1.5642877    0.7846992   -2.2257364 
H    -0.0702785    0.2085279   -1.8567430 
C     2.9715530   -1.3006604   -1.0282765 
O     3.3627454   -1.5744319    0.2788755 
O     3.9378825   -0.9378597   -1.9572914 
H     4.8568913   -1.0544881   -1.5478150 
N     0.6164344   -2.1257075   -0.6194900 
H     1.4941886   -1.6294176   -2.4673221 
H     1.1377860   -2.5712960    0.1739656 
H    -0.1762302   -1.6048314   -0.1817862 
