24
Energy =
C     1.7155523    2.8391022    0.2278435 
C     0.5674979    3.1440161   -0.4335655 
C    -0.1392819    2.1598996   -1.0344754 
C     2.1482705    1.5548559    0.2860521 
C     1.4358858    0.5613844   -0.3154077 
C     0.2879877    0.8731822   -0.9781961 
O     0.0919981    4.4573131   -0.5099780 
H     0.6830003    5.1388052   -0.0465138 
H    -0.2912974    0.0967427   -1.4723818 
H     3.0715083    1.3280916    0.8130724 
H     2.2916283    3.6208163    0.7102064 
H    -1.0502330    2.4166401   -1.5640412 
C     1.9231617   -0.8733429   -0.2638068 
C     2.7887710   -1.2687220   -1.4800907 
H     1.0489293   -1.5599498   -0.1956955 
H     2.5150225   -1.0377583    0.6642052 
C     2.0372206   -1.1424005   -2.7974783 
O     2.3162374   -0.1142253   -3.6918127 
O     1.0431884   -2.0607145   -3.1085898 
H     0.6546623   -1.8283771   -4.0140895 
N     4.0600160   -0.5192135   -1.4507663 
H     3.0103925   -2.3574470   -1.3907037 
H     4.6794521   -0.8656695   -2.2223552 
H     3.8735991    0.4865548   -1.6818457 
