24
Energy =
C     1.9537852    3.1971309   -0.3558325 
C     1.2789285    3.5095462   -1.4935014 
C     0.5763997    2.5511258   -2.1361776 
C     1.9251524    1.9278122    0.1292363 
C     1.2317469    0.9544231   -0.5263558 
C     0.5450550    1.2821855   -1.6570771 
O     1.2839709    4.8061828   -2.0172893 
H     1.8531632    5.4642776   -1.4960976 
H    -0.0460851    0.5413387   -2.1848596 
H     2.4649362    1.6975542    1.0450464 
H     2.5159213    3.9644272    0.1669063 
H     0.0362316    2.8144115   -3.0392669 
C     1.2014928   -0.4664318    0.0156778 
C     2.2787557   -1.4240840   -0.6055903 
H     0.1881876   -0.8995866   -0.1508011 
H     1.3313897   -0.4543404    1.1206057 
C     2.0631699   -1.7314470   -2.0957292 
O     0.7600746   -1.7057756   -2.5812925 
O     3.0206728   -2.2707310   -2.9590744 
H     3.9491821   -2.1621529   -2.5771850 
N     3.6498102   -1.0100285   -0.2802903 
H     2.1402113   -2.4068741   -0.1150811 
H     4.2288830   -1.0367379   -1.1374083 
H     3.7067846   -0.0340949    0.0834134 
