24
Energy =
C     1.8230920    2.6062520    0.5984960 
C     0.5130295    2.9505568    0.7075076 
C    -0.4367837    2.1298676    0.2064448 
C     2.1756677    1.4447302   -0.0108724 
C     1.2200618    0.6106684   -0.5098766 
C    -0.0912470    0.9660391   -0.4005370 
O     0.1162132    4.1392897    1.3272936 
H     0.8858909    4.6926470    1.6883114 
H    -0.8741935    0.3243206   -0.7961580 
H     3.2307200    1.1799349   -0.0776262 
H     2.5919682    3.2565129    1.0030508 
H    -1.4783207    2.4184749    0.2990092 
C     1.6050658   -0.6878531   -1.1996516 
C     2.0900932   -1.8055975   -0.2367457 
H     2.4016821   -0.4752274   -1.9487715 
H     0.7459561   -1.0825707   -1.7862923 
C     3.4639379   -1.4882543    0.3531666 
O     4.5951505   -1.8085823   -0.3817059 
O     3.6199852   -0.7070974    1.4942078 
H     3.3579161   -1.2311799    2.3151840 
N     1.0479714   -2.1849946    0.7500440 
H     2.2824552   -2.7058187   -0.8647599 
H     1.3974155   -2.1178867    1.7324417 
H     0.2093686   -1.5625286    0.7057437 
