24
Energy =
C     1.7796293    2.6666617   -0.1343558 
C     0.6446403    2.8940818    0.5659872 
C    -0.2511510    1.8963517    0.7460962 
C     2.0171916    1.4416988   -0.6683140 
C     1.1135209    0.4360501   -0.5043386 
C    -0.0196128    0.6681001    0.2158973 
O     0.4036152    4.1509840    1.1115626 
H    -0.0850993    4.7421049    0.4482235 
H    -0.7439987   -0.1268835    0.3750438 
H     2.9383936    1.2651581   -1.2173089 
H     2.4980326    3.4700326   -0.2541687 
H    -1.1497075    2.0876494    1.3234765 
C     1.3877564   -0.9379590   -1.0755564 
C     2.2207109   -1.7948366   -0.0977172 
H     1.9148839   -0.8401042   -2.0502399 
H     0.4213935   -1.4464898   -1.2991403 
C     2.1713776   -3.2805984   -0.4482970 
O     1.7139844   -4.1809309    0.5044262 
O     2.5789429   -3.7669612   -1.6904201 
H     2.8801145   -3.0280327   -2.3061799 
N     3.5993583   -1.2719909   -0.0369384 
H     1.7567370   -1.7224975    0.9162794 
H     4.1342842   -1.7886096    0.7031865 
H     4.0951474   -1.4498310   -0.9421069 
