24
Energy =
C     1.8868775    2.5594960    0.5287146 
C     0.5906361    2.7473171    0.8939699 
C    -0.3346428    1.8126921    0.5781903 
C     2.2496618    1.4414695   -0.1506880 
C     1.3174087    0.5043100   -0.4755188 
C     0.0225081    0.6930348   -0.1005754 
O     0.1837009    3.8866609    1.5956703 
H     0.9276725    4.5463875    1.7930285 
H    -0.7354415   -0.0487501   -0.3408631 
H     3.2916800    1.2925698   -0.4254001 
H     2.6337583    3.3023246    0.7843510 
H    -1.3660327    1.9703186    0.8768851 
C     1.7220623   -0.7522674   -1.2144368 
C     2.0506331   -1.9087555   -0.2490905 
H     2.6074242   -0.5578279   -1.8615972 
H     0.9013147   -1.0501779   -1.9067946 
C     2.1955457   -3.2454677   -0.9892368 
O     2.1234768   -3.3025671   -2.3792387 
O     2.4237994   -4.4201630   -0.2658140 
H     2.4131504   -4.2795213    0.7389683 
N     3.2738495   -1.5549399    0.5107187 
H     1.1858445   -2.0643705    0.4427002 
H     3.0025211   -0.9530281    1.3229951 
H     3.6993975   -2.4243255    0.9372579 
