24
Energy =
C     1.3134169    2.6437304    0.1881823 
C     0.1659928    2.8408174   -0.5008446 
C    -0.4125214    1.8117500   -1.1612658 
C     1.8893785    1.4147733    0.2155729 
C     1.3130481    0.3727479   -0.4454377 
C     0.1587687    0.5806021   -1.1399403 
O    -0.4214025    4.1015046   -0.5268225 
H    -0.0466952    4.6513564   -1.2924520 
H    -0.3080757   -0.2321963   -1.6909074 
H     2.8221970    1.2682912    0.7543759 
H     1.7655596    3.4786939    0.7121995 
H    -1.3319778    1.9829952   -1.7110605 
C     1.9695998   -0.9936008   -0.4385092 
C     3.1342360   -1.0929443   -1.4402081 
H     1.2195028   -1.7828993   -0.6709226 
H     2.3488301   -1.2183577    0.5823457 
C     2.6688428   -0.8072308   -2.8662319 
O     2.7601740    0.4665290   -3.4201840 
O     2.0820587   -1.8245988   -3.6080544 
H     1.8271359   -1.4599473   -4.5172355 
N     4.2435914   -0.2311934   -0.9700681 
H     3.4693043   -2.1570514   -1.4627046 
H     5.0508832   -0.8296833   -0.6756196 
H     4.6013160    0.3826740   -1.7426739 
