24
Energy =
C     1.7992247    2.5658178   -0.4388445 
C     0.5001703    2.9244022   -0.2565606 
C    -0.4623027    1.9744104   -0.2665853 
C     2.1282308    1.2631616   -0.6324712 
C     1.1588708    0.3074628   -0.6511731 
C    -0.1396985    0.6709481   -0.4608692 
O     0.1280488    4.2582837   -0.0567466 
H     0.9009330    4.9140550   -0.0532058 
H    -0.9290272   -0.0779295   -0.4564796 
H     3.1715196    0.9910758   -0.7717004 
H     2.5753907    3.3220954   -0.4280106 
H    -1.4958099    2.2674696   -0.1131406 
C     1.5297041   -1.1470805   -0.8479230 
C     1.9680357   -1.8141922    0.4707875 
H     2.3516330   -1.2178500   -1.5934103 
H     0.6787280   -1.7188396   -1.2857244 
C     0.8124958   -1.8953266    1.4775801 
O    -0.4677847   -2.2256431    1.0450950 
O     1.0212518   -1.6883483    2.8421933 
H     1.9868666   -1.4920457    3.0562133 
N     2.5017862   -3.1493962    0.1556476 
H     2.7759750   -1.1961638    0.9255713 
H     3.4208313   -3.0486956   -0.3363113 
H     2.7030369   -3.6691704    1.0441106 
