24
Energy =
C     1.1962935    2.0907444    1.0706726 
C     0.0154603    2.3995046    0.4716590 
C    -0.4531898    1.6157323   -0.5260599 
C     1.8987998    1.0005559    0.6715308 
C     1.4242118    0.2068368   -0.3285147 
C     0.2461158    0.5251468   -0.9310734 
O    -0.7332057    3.5152481    0.8581248 
H    -0.3139902    4.0550314    1.6079037 
H    -0.1441229   -0.0886446   -1.7391215 
H     2.8489905    0.7729945    1.1519783 
H     1.5839593    2.7166776    1.8674316 
H    -1.3947818    1.8762916   -0.9975276 
C     2.2205363   -0.9916892   -0.7969566 
C     3.1301501   -0.6482269   -2.0013600 
H     1.5203865   -1.8093546   -1.0796156 
H     2.8466221   -1.3891291    0.0354859 
C     4.1312393    0.4444540   -1.6479125 
O     5.1145268    0.2119571   -0.6953967 
O     4.0331092    1.7011562   -2.2286237 
H     3.3010841    2.2232483   -1.7694250 
N     3.7830936   -1.8740183   -2.5255363 
H     2.5079042   -0.2133972   -2.8181482 
H     4.8280797   -1.8167969   -2.4301014 
H     3.5046174   -2.7366999   -2.0013709 
