24
Energy =
C     2.0319723    2.5194661    0.0194740 
C     0.7644091    2.9747184    0.1383112 
C    -0.2773429    2.1469069   -0.1032602 
C     2.2630966    1.2297500   -0.3337780 
C     1.2195063    0.3824400   -0.5637968 
C    -0.0548194    0.8543938   -0.4534121 
O     0.5316093    4.2980370    0.4990869 
H     0.4729843    4.3862692    1.5080261 
H    -0.9043303    0.2045823   -0.6445707 
H     3.2889441    0.8797518   -0.4206723 
H     2.8571708    3.1967348    0.2104501 
H    -1.2891420    2.5285063   -0.0154491 
C     1.4733631   -1.0649256   -0.9476304 
C     1.8486498   -1.9762794    0.2531823 
H     2.2883386   -1.0979892   -1.7052143 
H     0.5806740   -1.4916279   -1.4569056 
C     3.1445881   -1.5299213    0.9341166 
O     3.1065987   -0.6986601    2.0482085 
O     4.3905408   -1.8482289    0.3885051 
H     4.3121687   -2.4482576   -0.4186838 
N     0.7385963   -2.0942116    1.2221854 
H     2.0608454   -2.9877484   -0.1637667 
H    -0.1015556   -1.5360900    0.9495576 
H     0.4310058   -3.0919236    1.2990402 
