24
Energy =
C     1.8066238    2.6725001   -0.1871865 
C     0.4782827    2.8501462   -0.0030414 
C    -0.3675376    1.8012111   -0.1205914 
C     2.2942617    1.4444387   -0.4982570 
C     1.4483943    0.3829870   -0.6225666 
C     0.1121289    0.5699305   -0.4312844 
O    -0.0176183    4.1103864    0.3151169 
H    -0.2310858    4.6354093   -0.5257781 
H    -0.5801917   -0.2630659   -0.5234935 
H     3.3640171    1.3189986   -0.6430878 
H     2.4735327    3.5208563   -0.0779927 
H    -1.4295661    1.9553824    0.0400932 
C     1.9813017   -0.9930245   -0.9625238 
C     1.9790273   -1.9421798    0.2628752 
H     3.0131030   -0.9352633   -1.3795244 
H     1.3518090   -1.4192474   -1.7761061 
C     2.1865921   -3.3818825   -0.1845819 
O     3.4383754   -3.8152511   -0.5991260 
O     1.1088472   -4.2530008   -0.2646005 
H     0.5567867   -4.0295673   -1.0789222 
N     2.9647288   -1.5113300    1.2864728 
H     0.9688593   -1.9409679    0.7338242 
H     3.7092476   -2.2381059    1.4313281 
H     3.4743053   -0.6407423    1.0125541 
