24
Energy =
C     0.9624590    1.3265611    1.8623955 
C     0.4846005    2.4242020    1.2174446 
C     0.3690402    2.4102852   -0.1298567 
C     1.3195583    0.2226470    1.1571610 
C     1.1948335    0.2043033   -0.1988326 
C     0.7227018    1.3087350   -0.8392745 
O     0.1080168    3.5770418    1.9136057 
H     0.2263155    3.5113541    2.9186422 
H     0.6361897    1.3203871   -1.9228094 
H     1.7048521   -0.6469820    1.6832170 
H     1.0617702    1.3308890    2.9425923 
H    -0.0060394    3.2948794   -0.6329359 
C     1.6109885   -1.0186684   -0.9883729 
C     3.0756066   -0.9213272   -1.4568759 
H     0.9432275   -1.1474666   -1.8709392 
H     1.4739765   -1.9299398   -0.3630474 
C     3.5590933   -2.2699521   -1.9941666 
O     3.3524963   -2.5962826   -3.3289510 
O     4.1488059   -3.2166354   -1.1567790 
H     4.1983816   -2.9047376   -0.1991690 
N     3.1971056    0.1629630   -2.4511787 
H     3.7174567   -0.6734814   -0.5807094 
H     4.2065258    0.2844978   -2.7070162 
H     2.7092705   -0.1123057   -3.3391491 
