24
Energy =
C     1.7607341    2.6718334   -0.7037821 
C     0.5510915    2.9037988   -0.1440498 
C    -0.2694076    1.8686304    0.1474355 
C     2.1527260    1.4019949   -0.9798459 
C     1.3311775    0.3540355   -0.6909771 
C     0.1152815    0.5958828   -0.1257064 
O     0.1537690    4.2066299    0.1398236 
H    -0.3223799    4.6169310   -0.6560210 
H    -0.5561183   -0.2259331    0.1108787 
H     3.1269680    1.2334654   -1.4314234 
H     2.4115540    3.5108752   -0.9242875 
H    -1.2337947    2.0677050    0.6030228 
C     1.7622337   -1.0666624   -0.9850509 
C     2.1539239   -1.8411583    0.3018722 
H     2.6131584   -1.0920524   -1.7037108 
H     0.9247927   -1.5901960   -1.5017708 
C     2.2632865   -3.3363695    0.0505124 
O     2.3165696   -3.8489854   -1.2401683 
O     2.3231149   -4.2139448    1.1225691 
H     3.2753558   -4.2299889    1.4574880 
N     3.4171735   -1.3289385    0.8764148 
H     1.3259493   -1.7467849    1.0432827 
H     3.7531014   -0.4620078    0.3968451 
H     3.2628040   -1.0653122    1.8784499 
