24
Energy =
C     1.3372158    2.5717050    0.6065143 
C     0.1623702    2.7944924   -0.0397625 
C    -0.3588855    1.8295058   -0.8303324 
C     1.9839636    1.3885456    0.4576370 
C     1.4642586    0.4151378   -0.3430342 
C     0.2821081    0.6433117   -0.9813093 
O    -0.5304911    4.0016956    0.0944288 
H    -0.0708538    4.6792203    0.6930720 
H    -0.1558256   -0.1186788   -1.6215368 
H     2.9181574    1.2278625    0.9884585 
H     1.7619357    3.3382505    1.2453997 
H    -1.2962019    2.0194978   -1.3421729 
C     2.1839529   -0.9109930   -0.5158441 
C     3.0340752   -0.9956168   -1.8107091 
H     1.4324016   -1.7328090   -0.5219797 
H     2.8392220   -1.1123509    0.3604378 
C     2.1855571   -0.8235613   -3.0660938 
O     1.4593736   -1.9023249   -3.5567022 
O     2.0578120    0.4140767   -3.6875898 
H     1.4471559    0.3180250   -4.4886553 
N     4.2221052   -0.1080810   -1.7553173 
H     3.4112043   -2.0409978   -1.8826572 
H     4.2406303    0.5514870   -2.5713184 
H     4.2285363    0.4987310   -0.9056573 
