24
Energy =
C     1.4553982    2.5385222    0.8163811 
C     0.1035391    2.5838534    0.8484983 
C    -0.6207781    1.6296552    0.2200909 
C     2.0890349    1.5327223    0.1611045 
C     1.3661885    0.5673496   -0.4727200 
C     0.0054022    0.6205739   -0.4374598 
O    -0.5424609    3.6160840    1.5215143 
H    -0.6954431    3.3706038    2.4934093 
H    -0.5895067   -0.1398619   -0.9378054 
H     3.1757182    1.5082104    0.1473623 
H     2.0229586    3.3161127    1.3159299 
H    -1.7041774    1.6834430    0.2451793 
C     2.0636825   -0.5643415   -1.1938657 
C     2.0778610   -1.8698315   -0.3598474 
H     3.1060451   -0.2796384   -1.4650951 
H     1.5456862   -0.7437206   -2.1641278 
C     2.5288097   -3.0537331   -1.1967534 
O     3.6087407   -2.9372685   -2.0629755 
O     1.8857105   -4.2771126   -1.0768211 
H     2.2495729   -4.7470605   -0.2598874 
N     2.9269079   -1.7193093    0.8355346 
H     1.0382176   -2.1199538   -0.0444841 
H     3.8880928   -1.4070182    0.5556126 
H     2.5260256   -0.9879928    1.4684506 
