24
Energy =
C    -0.6973198    1.1679767    0.7763982 
C    -0.5850636    2.1976023   -0.0940541 
C     0.5729526    2.3935672   -0.7649467 
C     0.3529433    0.3337779    0.9861393 
C     1.5246700    0.5267797    0.3172859 
C     1.6277334    1.5638799   -0.5609341 
O    -1.6634883    3.0508780   -0.3051809 
H    -1.6488372    3.8192895    0.3566596 
H     2.5533953    1.7341464   -1.1061507 
H     0.2463734   -0.4881350    1.6890525 
H    -1.6363460    1.0168463    1.2976522 
H     0.6464254    3.2168040   -1.4681713 
C     2.7029927   -0.3995239    0.5375554 
C     2.9150861   -1.3796369   -0.6516826 
H     2.5891124   -0.9812421    1.4800279 
H     3.6101845    0.2320575    0.6862665 
C     4.3411344   -1.9701688   -0.6045368 
O     5.3940149   -1.0629896   -0.5959980 
O     4.6785864   -3.3255020   -0.5563014 
H     3.9518488   -3.9571935   -0.8290093 
N     1.7749683   -2.3290016   -0.7563841 
H     2.9301073   -0.7828664   -1.5917263 
H     2.0308204   -3.3335902   -0.7759836 
H     1.0892603   -2.2296074    0.0279564 
