24
UFF-Energy = 0.0694815
C     0.8142514    1.4376516    1.7781436 
C     0.4099201    2.5034073    1.0504906 
C     0.3680633    2.4142632   -0.3057242 
C     1.1761224    0.2823798    1.1638453 
C     1.1277821    0.1847930   -0.1933243 
C     0.7274358    1.2611413   -0.9247835 
O     0.0460640    3.6754784    1.7208272 
H    -0.2403528    4.4297639    1.1061332 
H     0.7031911    1.2075163   -2.0104207 
H     1.5031559   -0.5627666    1.7636543 
H     0.8460203    1.5243204    2.8590447 
H     0.0520252    3.2657287   -0.8987334 
C     1.5490269   -1.0957062   -0.8826778 
C     3.0381255   -1.0652581   -1.2772795 
H     0.9241940   -1.2630296   -1.7898199 
H     1.3539553   -1.9620281   -0.2105840 
C     3.5107861   -2.4572532   -1.7015870 
O     3.3754601   -2.8596693   -3.0247021 
O     4.0193902   -3.3659189   -0.7738451 
H     4.0192497   -2.9972583    0.1647542 
N     3.2417947   -0.0505804   -2.3300108 
H     3.6404195   -0.7780054   -0.3851174 
H     4.2663755    0.0297087   -2.5373160 
H     2.7946266   -0.3710714   -3.2241873 
