24
UFF-Energy = 0.0391552
C     0.6023859    2.0368474    0.6873824 
C     0.2829041    2.8447667   -0.3493057 
C     0.4560443    2.4027656   -1.6237368 
C     1.0970268    0.7930664    0.4633918 
C     1.2812050    0.3492914   -0.8098901 
C     0.9492860    1.1591506   -1.8534236 
O    -0.2224597    4.1205867   -0.0785671 
H    -0.4421458    4.6620067   -0.9073689 
H     1.0741393    0.8154887   -2.8775022 
H     1.3344221    0.1529008    1.3093006 
H     0.4521985    2.3971301    1.6992596 
H     0.1972614    3.0415633   -2.4614075 
C     1.8108125   -1.0448860   -1.0641075 
C     0.6676630   -2.0687697   -1.1925066 
H     2.4963859   -1.3553806   -0.2437070 
H     2.4262817   -1.0451711   -1.9922688 
C     1.1907683   -3.3880010   -1.7372464 
O     1.0228624   -3.7006177   -3.0793698 
O     1.8950329   -4.2619744   -0.9199899 
H     2.1697290   -5.0653666   -1.4714752 
N     0.0018823   -2.2234592    0.1148515 
H    -0.0702892   -1.6979376   -1.9424337 
H    -0.8343213   -2.8434632   -0.0034029 
H     0.6441394   -2.7360972    0.7680694 
