24
UFF-Energy = 0.0492091
C     1.9895892    2.9031290   -1.0428551 
C     0.7419597    3.0892467   -0.5553501 
C    -0.0456137    2.0114240   -0.2960081 
C     2.4590148    1.6508855   -1.2726188 
C     1.6753652    0.5679869   -1.0129414 
C     0.4184216    0.7566438   -0.5240843 
O     0.2948931    4.3954170   -0.3306618 
H    -0.6501923    4.4515727    0.0330640 
H    -0.2241538   -0.0949742   -0.3134234 
H     3.4643481    1.5258597   -1.6663822 
H     2.6078395    3.7704404   -1.2474857 
H    -1.0482298    2.1506629    0.0939655 
C     2.1919444   -0.8334322   -1.2586438 
C     2.5347144   -1.5713222    0.0612251 
H     3.0905043   -0.8243442   -1.9178281 
H     1.4162686   -1.4029117   -1.8196171 
C     2.7528862   -3.0519851   -0.1886843 
O     2.0965400   -3.9941531    0.5952652 
O     3.5813848   -3.4876069   -1.2159477 
H     3.6173476   -4.4977849   -1.1895467 
N     3.7203514   -0.9831293    0.7195785 
H     1.6538480   -1.5194825    0.7439939 
H     4.0729027   -0.1293574    0.2294592 
H     3.4704691   -0.6895559    1.6930094 
