13
Energy =
C    -5.2614287    2.1495790   -0.3555483 
C    -3.9526728    1.4010959   -0.0691907 
H    -6.0492579    1.4417216   -0.6914872 
H    -5.1137760    2.9098473   -1.1549442 
H    -5.6245055    2.6637166    0.5617079 
C    -2.8145417    2.3673415    0.2693324 
N    -4.2051080    0.4402329    1.0158011 
H    -3.6306873    0.8610220   -0.9937275 
H    -4.9143002   -0.2635391    0.6983935 
H    -3.3294814   -0.1054373    1.2067729 
O    -1.8634318    2.6584425   -0.7000298 
O    -2.7256457    2.9930567    1.5113921 
H    -3.4684231    2.6807334    2.1198891 
