13
Energy =
C    -5.4404939    1.9772303    0.4986031 
C    -4.1336824    1.5640400   -0.1843680 
H    -6.2366618    1.2369359    0.2680312 
H    -5.7686224    2.9776215    0.1418536 
H    -5.3063862    2.0170471    1.6021012 
C    -3.0115897    2.5533174    0.0988636 
N    -3.8069913    0.1952504    0.2451987 
H    -4.2874092    1.5789763   -1.2904344 
H    -2.9656132   -0.1382141   -0.2833300 
H    -3.5315039    0.2021051    1.2583436 
O    -2.4794914    2.6711727    1.3789222 
O    -2.5261879    3.3612052   -0.9208551 
H    -1.7952866    3.9557792   -0.5512520 
