13
Energy =
C    -5.2263100    2.0299571   -0.5561829 
C    -3.9822841    1.3269687    0.0147335 
H    -4.9929719    2.4876705   -1.5423430 
H    -5.5614223    2.8387106    0.1317922 
H    -6.0571056    1.3061131   -0.6950866 
C    -2.8109543    2.2879138    0.1733076 
N    -4.3271190    0.6838158    1.2911951 
H    -3.6401905    0.5451760   -0.7037022 
H    -4.6314138    1.4120953    1.9825018 
H    -5.1266308    0.0217937    1.1545854 
O    -1.6283089    2.0715154   -0.5263630 
O    -2.9258875    3.4099537    0.9886436 
H    -2.0491413    3.9142813    0.9749782 
