13
Energy =
C    -5.1784368    2.3464071   -0.1124276 
C    -4.0443192    1.3064954   -0.1291358 
H    -5.0213962    3.1037095   -0.9121017 
H    -5.2085493    2.8737064    0.8670906 
H    -6.1600155    1.8562102   -0.2858606 
C    -2.6776574    1.9560044    0.0314549 
N    -4.2931451    0.2960878    0.9110392 
H    -4.0126675    0.8050219   -1.1260568 
H    -4.3075643    0.7526476    1.8557716 
H    -5.2290754   -0.1492740    0.7618277 
O    -2.3188202    2.5672750    1.2295299 
O    -1.7994726    1.9977426   -1.0447034 
H    -0.9493305    2.4625210   -0.7534347 
