13
Energy =
C    -5.3739010    2.1634402   -0.1187812 
C    -4.0710709    1.3641309    0.0203277 
H    -5.4222951    2.6669735   -1.1097869 
H    -5.4670837    2.9322866    0.6768188 
H    -6.2453970    1.4770391   -0.0311379 
C    -2.8153019    2.2175210   -0.1800080 
N    -4.0938428    0.6672467    1.3161458 
H    -4.0423366    0.6041053   -0.7997423 
H    -3.2402437    0.0636370    1.4052133 
H    -4.0569361    1.3574021    2.1034998 
O    -1.9142929    1.8627112   -1.1749422 
O    -2.5299051    3.3237021    0.6198244 
H    -3.2603532    3.5005987    1.2905369 
