13
Energy =
C    -5.0914675    2.6190590    0.2046648 
C    -4.1040381    1.4611547   -0.0156680 
H    -6.1396406    2.2561431    0.1554262 
H    -4.9523698    3.3990544   -0.5759638 
H    -4.9158192    3.0887243    1.1981249 
C    -2.6664515    1.9546794   -0.0280354 
N    -4.3141121    0.4323419    1.0151805 
H    -4.2720929    1.0105692   -1.0230460 
H    -4.0781622    0.8283111    1.9583096 
H    -5.3183143    0.1376552    1.0360070 
O    -1.9199759    1.8974198   -1.1988523 
O    -2.1036387    2.5216842    1.1094273 
H    -1.1472473    2.7774428    0.9004494 
