13
Energy =
C    -5.0675222    1.7861283   -0.5848631 
C    -3.7065192    1.4857350    0.0548657 
H    -5.5270177    0.8552838   -0.9802188 
H    -4.9563556    2.5070241   -1.4253185 
H    -5.7602479    2.2231865    0.1679210 
C    -3.0094463    2.7694374    0.5049294 
N    -3.9230124    0.5506082    1.1700437 
H    -3.0313039    1.0274535   -0.7102187 
H    -4.2606175   -0.3678825    0.7946277 
H    -3.0059911    0.3490725    1.6390539 
O    -1.9836590    3.2880381   -0.2741999 
O    -3.3991964    3.4563403    1.6531163 
H    -4.1412108    2.9660719    2.1316796 
