13
Energy =
C    -5.4255793    1.7471317    0.0663721 
C    -3.9398848    1.4126564   -0.1601574 
H    -5.7767787    2.4806255   -0.6927600 
H    -5.5764282    2.1910524    1.0758873 
H    -6.0509921    0.8329439   -0.0198009 
C    -3.0619404    2.6547158   -0.1156452 
N    -3.5107385    0.4090621    0.8260457 
H    -3.8025486    0.9991301   -1.1881725 
H    -3.6234759    0.7934846    1.7958995 
H    -4.1149130   -0.4431967    0.7545720 
O    -2.8953120    3.3636521    1.0708826 
O    -2.4589624    3.1191529   -1.2785998 
H    -1.9198263    3.9466743   -1.0591990 
