13
Energy =
C    -5.4237067    1.7175556    0.1699719 
C    -3.9604499    1.4738071   -0.2190550 
H    -5.8335434    2.5966802   -0.3726710 
H    -5.4929261    1.9106990    1.2645857 
H    -6.0439187    0.8283428   -0.0689157 
C    -3.0978464    2.7065804    0.0146719 
N    -3.4713401    0.3158072    0.5440080 
H    -3.8986941    1.2685187   -1.3149947 
H    -3.9608058   -0.5481969    0.2118404 
H    -2.4534406    0.1704836    0.3354779 
O    -3.3107239    3.5386288    1.1100113 
O    -2.0620586    2.9930566   -0.8658901 
H    -1.5846057    3.8272663   -0.5486602 
