13
Energy =
C    -3.6276239    1.5835574    0.2887373 
C    -2.4191809    2.5155272    0.3309569 
C    -4.9257687    2.3698791    0.1081701 
H    -5.0573493    3.1163827    0.9202368 
H    -5.7930808    1.6755871    0.1134590 
H    -4.9121217    2.8953303   -0.8736640 
N    -3.5633095    0.5928886   -0.8025842 
H    -3.6512703    1.0674698    1.2791446 
H    -2.6306591    0.6091165   -1.2847736 
H    -3.6791196   -0.3716973   -0.4119511 
O    -1.9808312    3.1587873   -0.8191070 
O    -1.7779872    2.7710361    1.5354793 
H    -2.3141778    3.4483012    2.0575688 
