13
Energy =
C    -3.6033522    1.6349847    0.2651671 
C    -2.4502648    2.6252528    0.1097621 
C    -4.9428163    2.3534912    0.4274717 
H    -4.9034930    3.0771348    1.2707600 
H    -5.7441358    1.6114304    0.6319478 
H    -5.2062220    2.8898816   -0.5098359 
N    -3.7415636    0.7033950   -0.8708065 
H    -3.3871288    1.0712593    1.2055686 
H    -2.9799801    0.8438480   -1.5799487 
H    -3.6448177   -0.2820094   -0.5300532 
O    -1.7205925    3.0126843    1.2245584 
O    -2.1595973    3.2021669   -1.1203456 
H    -2.8020258    3.9624265   -1.2838959 
