13
Energy =
C    -3.6519763    1.6378191    0.0808968 
C    -2.4537339    2.5743051   -0.0227022 
C    -4.8279442    2.2593065    0.8759833 
H    -5.7648760    2.3047214    0.2798351 
H    -4.5986875    3.2993603    1.2020373 
H    -5.0367056    1.6607446    1.7891299 
N    -4.1184908    1.2049223   -1.2463115 
H    -3.2606753    0.7485741    0.6325070 
H    -4.8850898    0.4994457   -1.1349376 
H    -4.5241733    2.0253328   -1.7601750 
O    -1.3683374    2.4059538    0.8274182 
O    -2.4497257    3.6300211   -0.9260101 
H    -2.1500142    3.2794624   -1.8239593 
