13
Energy =
C    -3.5785089    1.7033635    0.3491721 
C    -2.5153311    2.6765190   -0.1798757 
C    -5.0024144    2.2981352    0.3113955 
H    -5.0224368    3.3237095   -0.1198146 
H    -5.4313537    2.3430101    1.3341023 
H    -5.6811009    1.6768941   -0.3136529 
N    -3.6179278    0.4133563   -0.3714597 
H    -3.2929441    1.5297944    1.4137299 
H    -2.8387909    0.3272613   -1.0696969 
H    -3.4886325   -0.3732651    0.3073046 
O    -1.3390676    2.2009049   -0.7447491 
O    -2.6376395    4.0433136    0.0409770 
H    -2.4135917    4.2426293    1.0046684 
