13
Energy =
C    -3.7793529    1.7603282    0.3122427 
C    -2.6092726    2.7562315    0.3069975 
C    -4.9313511    2.2645986   -0.5561376 
H    -5.2871968    3.2584251   -0.2086494 
H    -5.7783842    1.5459760   -0.5205565 
H    -4.5979739    2.3471287   -1.6155343 
N    -3.4225783    0.4157849   -0.1823503 
H    -4.1339549    1.6905531    1.3678995 
H    -2.3936561    0.3236679   -0.3705100 
H    -3.6589006   -0.3056732    0.5389307 
O    -1.6089832    2.6541927   -0.6525987 
O    -2.5521152    3.8091304    1.2201640 
H    -3.3625702    3.8397120    1.8197784 
