13
Energy =
C    -3.6450110    1.7189432    0.2671450 
C    -2.5228246    2.7332229    0.0698361 
C    -5.0378444    2.2821761   -0.0922198 
H    -5.5259011    1.6820912   -0.8907854 
H    -4.9831206    3.3345765   -0.4531604 
H    -5.7045041    2.2589149    0.7958074 
N    -3.4248003    0.4800052   -0.4966997 
H    -3.6276988    1.4795396    1.3590642 
H    -3.3177628    0.7029319   -1.5152313 
H    -2.5269756    0.0345656   -0.1863952 
O    -1.5173754    2.8428326    1.0192453 
O    -2.4637961    3.5203221   -1.0732421 
H    -2.0823353    2.9716492   -1.8291382 
