13
Energy =
C    -3.8060276    1.7857187    0.4006194 
C    -2.3649838    2.2922617    0.4118331 
C    -4.6935817    2.5363917   -0.6132691 
H    -4.1246195    3.2944209   -1.1940974 
H    -5.5136411    3.0652762   -0.0816119 
H    -5.1680453    1.8354090   -1.3348211 
N    -3.9006867    0.3410156    0.1311176 
H    -4.1954702    1.9843534    1.4287878 
H    -3.3522127    0.1079595   -0.7330336 
H    -3.4317196   -0.1800759    0.9105743 
O    -1.9811814    3.2634868    1.3246388 
O    -1.4467102    1.8522033   -0.5336580 
H    -1.6173103    2.3295150   -1.4056029 
