13
Energy =
C    -3.6905604    1.6905690    0.3201650 
C    -2.4671423    2.5984522    0.2640390 
C    -4.8851082    2.2894519   -0.4300719 
H    -5.7642274    1.6158738   -0.3328281 
H    -4.6542541    2.4040556   -1.5108801 
H    -5.1533898    3.2844280   -0.0105068 
N    -3.4357473    0.3456317   -0.2210426 
H    -3.9525323    1.6086258    1.4032503 
H    -3.1119177    0.4242481   -1.2153558 
H    -2.6343756   -0.0882422    0.2987754 
O    -2.2715486    3.5486456    1.2552441 
O    -1.5764031    2.5356980   -0.7994687 
H    -1.9705731    3.0308034   -1.5851483 
