13
Energy =
C    -3.6915303    1.6741640    0.1931351 
C    -2.3896913    2.4518522    0.0431557 
C    -4.9426667    2.5770433    0.0502559 
H    -5.6028126    2.2515617   -0.7822465 
H    -4.6638073    3.6371012   -0.1537696 
H    -5.5410697    2.5576300    0.9862572 
N    -3.7689956    0.5578265   -0.7628825 
H    -3.6495078    1.2578328    1.2293754 
H    -4.6284564   -0.0103661   -0.5710552 
H    -3.8528587    0.9310041   -1.7397264 
O    -1.5978904    2.7018886    1.1559992 
O    -2.0137883    2.9749366   -1.1870757 
H    -1.5453351    2.2481643   -1.7081755 
