13
Energy =
C    -3.6574374    1.7497880    0.2893425 
C    -2.4891768    2.6816703   -0.0091240 
C    -5.0237287    2.3786546   -0.0583526 
H    -5.5586776    1.7828372   -0.8294166 
H    -4.9146557    3.4111015   -0.4601633 
H    -5.6703214    2.4211409    0.8432941 
N    -3.5370841    0.4641067   -0.4169717 
H    -3.6156618    1.5671181    1.3906532 
H    -3.4106663    0.6504520   -1.4424471 
H    -2.6615293   -0.0182913   -0.1011128 
O    -1.5329036    2.9336343    0.9658366 
O    -2.3554481    3.2711473   -1.2596146 
H    -1.5134193    3.8330914   -1.2627126 
