13
Energy =
C    -3.7923728    1.8401879    0.3832967 
C    -2.4663186    2.5894111    0.3412216 
C    -4.8044419    2.3716924   -0.6612272 
H    -5.1434317    1.5798503   -1.3629892 
H    -4.3686602    3.1921414   -1.2767804 
H    -5.7033997    2.7789618   -0.1502839 
N    -3.6050045    0.3908617    0.2078721 
H    -4.1886280    2.0293005    1.4106223 
H    -4.5230366   -0.0979080    0.3346985 
H    -3.2776219    0.1924156   -0.7694040 
O    -2.2527279    3.6662259    1.1903731 
O    -1.4888252    2.2557944   -0.5864392 
H    -0.9567060    1.4830342   -0.2147193 
