13
Energy =
C    -3.5926297    1.6761285    0.3100828 
C    -2.6110957    2.7444476   -0.1943815 
C    -5.0648743    2.0912004    0.1393975 
H    -5.7413279    1.3115778    0.5495469 
H    -5.3055278    2.2469441   -0.9348936 
H    -5.2667101    3.0445742    0.6773994 
N    -3.3888038    0.3740314   -0.3477854 
H    -3.3708116    1.5764456    1.3992015 
H    -3.9914304   -0.3529577    0.1085749 
H    -3.6802632    0.4260244   -1.3550643 
O    -3.0066010    4.0760948   -0.2477601 
O    -1.2926504    2.4304745   -0.5172084 
H    -1.1347140    1.4368384   -0.4330093 
