13
Energy =
C    -3.8537976    1.8749230    0.2746633 
C    -2.8188157    2.9910114    0.3456042 
C    -4.9203017    2.1616947   -0.7861416 
H    -4.4515387    2.2540049   -1.7910292 
H    -5.4545141    3.1094436   -0.5574112 
H    -5.6578033    1.3312121   -0.8169308 
N    -3.2543061    0.5651152   -0.0238709 
H    -4.3509847    1.8387315    1.2734662 
H    -2.6977225    0.6309602   -0.9118967 
H    -2.5713438    0.3122321    0.7293870 
O    -2.0327285    3.2917717   -0.7584075 
O    -2.6422598    3.7081778    1.5202809 
H    -2.0892635    3.1606627    2.1628133 
