13
Energy =
C    -3.8669418    1.8935509    0.3062579 
C    -2.7328743    2.9078295    0.3325535 
C    -4.8652867    2.1486585   -0.8512762 
H    -4.9558050    1.2715016   -1.5273198 
H    -4.5538146    3.0130598   -1.4813027 
H    -5.8749404    2.3718520   -0.4449179 
N    -3.3545717    0.5162806    0.2323013 
H    -4.3849816    2.0312721    1.2860222 
H    -4.1520205   -0.1622930    0.2420552 
H    -2.8299898    0.3838020   -0.6670551 
O    -1.8189731    2.9754578   -0.7143398 
O    -2.6380911    3.8181173    1.3772184 
H    -1.8252494    4.4014700    1.2252760 
