13
Energy =
C    -3.7487558    1.7440695    0.3137281 
C    -2.5564854    2.7060374    0.3507308 
C    -4.9249868    2.3187982   -0.5001989 
H    -5.2376613    1.6197968   -1.3064551 
H    -4.6619886    3.2858917   -0.9834455 
H    -5.8000529    2.4958454    0.1596632 
N    -3.4429541    0.4000810   -0.2231210 
H    -4.0620708    1.6641911    1.3824421 
H    -2.4219976    0.2788441   -0.4314037 
H    -3.6837663   -0.3266949    0.4907020 
O    -1.2897135    2.3277991   -0.0821356 
O    -2.7330927    3.9882037    0.8527957 
H    -1.8459141    4.4745128    0.8147238 
