13
Energy =
C    -5.1306987    2.4185903    0.2765192 
C    -4.0245545    1.4841780   -0.2276929 
H    -5.1054749    2.4602889    1.3889266 
H    -6.1275669    2.0455902   -0.0385966 
H    -4.9896025    3.4469948   -0.1204804 
C    -2.6379341    2.0234585    0.0966418 
N    -4.2436289    0.1556590    0.3632556 
H    -4.0716372    1.4224727   -1.3414580 
H    -5.1151015   -0.2621859   -0.0399151 
H    -3.4598879   -0.4807443    0.0778857 
O    -2.3911919    2.7084991    1.2830281 
O    -1.5955499    1.8154640   -0.7980382 
H    -0.7493411    2.2162939   -0.4137853 
