13
Energy =
C    -3.5610908    1.6414583    0.2092085 
C    -2.4975148    2.7225689   -0.0235986 
C    -5.0093431    2.1771481    0.1261427 
H    -5.5939866    1.6423720   -0.6541266 
H    -5.0526931    3.2565452   -0.1375404 
H    -5.5284469    2.0425912    1.0981836 
N    -3.4387708    0.5228069   -0.7424056 
H    -3.3719840    1.2731795    1.2448195 
H    -2.4322334    0.2464387   -0.8537783 
H    -3.9327473   -0.3151105   -0.3544362 
O    -2.7827570    4.0636429    0.2033628 
O    -1.1826608    2.3638032   -0.2979926 
H    -0.7428465    2.0413416    0.5509552 
