13
Energy =
C    -3.7105479    1.4680911    0.0033648 
C    -2.1860202    1.6113938    0.1855163 
C    -4.4589367    2.3685665    0.9906774 
H    -4.1464825    2.1632512    2.0380574 
H    -5.5530904    2.1963586    0.9069567 
H    -4.2588996    3.4359588    0.7539696 
N    -4.2775158    1.7450874   -1.3317969 
H    -3.9250741    0.4094899    0.2816496 
H    -3.6249665    2.0475925   -2.0756052 
H    -4.8209943    0.9165305   -1.6800758 
O    -1.6745274    1.4145745    1.4584703 
O    -1.2626106    1.8664821   -0.8219890 
H    -1.7265439    2.0122070   -1.6931813 
