13
Energy =
C    -3.7112219    1.5885894    0.2615446 
C    -2.6530213    2.6506484    0.5770362 
C    -5.1048689    2.1800861    0.0168953 
H    -5.1251128    2.8141911   -0.8940817 
H    -5.4282848    2.7913205    0.8880268 
H    -5.8389840    1.3564370   -0.1259591 
N    -3.3574850    0.7454547   -0.8909812 
H    -3.7690906    0.9454191    1.1737473 
H    -3.1896466    1.3345517   -1.7408146 
H    -2.4575316    0.2452220   -0.6904103 
O    -1.9547263    2.5699373    1.7743694 
O    -2.3486878    3.6856326   -0.3075730 
H    -2.9258585    3.6603941   -1.1323848 
