13
Energy =
C    -3.6299764    1.5699467    0.2289400 
C    -2.3914353    2.4574573    0.2279667 
C    -4.9241014    2.3914058    0.0895637 
H    -5.0061293    3.1361574    0.9109084 
H    -5.8152616    1.7290660    0.1334069 
H    -4.9344180    2.9386404   -0.8804770 
N    -3.5755519    0.5640197   -0.8425078 
H    -3.6206721    1.0472257    1.2151886 
H    -4.4356024   -0.0329730   -0.8237414 
H    -3.5390269    1.0388256   -1.7779198 
O    -2.0042866    3.1241097   -0.9282838 
O    -1.6977576    2.6910349    1.4084648 
H    -2.2023605    3.3704329    1.9576107 
