13
Energy =
C    -3.6409822    1.6480235    0.2240067 
C    -2.3883361    2.4944433    0.0233618 
C    -4.9293753    2.4895283    0.1831999 
H    -5.8094836    1.8607609    0.4388111 
H    -5.0886564    2.9220632   -0.8287651 
H    -4.8753683    3.3189504    0.9228332 
N    -3.7326724    0.5690086   -0.7711722 
H    -3.5277412    1.1956103    1.2388899 
H    -4.6058867    0.0105864   -0.6222977 
H    -3.7724556    0.9749485   -1.7378622 
O    -1.5184291    2.7059875    1.0847435 
O    -2.1388504    3.1239828   -1.1912432 
H    -2.7181428    3.9462054   -1.2597853 
