13
Energy =
C    -3.6511389    1.6024680    0.2513739 
C    -2.4220427    2.4967840    0.2089968 
C    -4.9490667    2.4047117    0.0486922 
H    -5.8370789    1.7441019    0.1420436 
H    -4.9574277    2.8795419   -0.9579438 
H    -5.0306074    3.2098663    0.8121173 
N    -3.5776686    0.5305870   -0.7539124 
H    -3.6426296    1.1505415    1.2723770 
H    -4.4379675   -0.0645049   -0.7091369 
H    -3.5348419    0.9505152   -1.7148987 
O    -2.0605483    3.1527603   -0.9635004 
O    -1.6796191    2.7108435    1.3625517 
H    -0.9077527    3.3249930    1.1367331 
