13
Energy =
C    -3.8349372    1.8869380    0.3951957 
C    -2.5851674    2.7835265    0.3514756 
C    -4.9331303    2.2779417   -0.6302506 
H    -5.1815778    1.4461472   -1.3237934 
H    -4.6370351    3.1452785   -1.2621317 
H    -5.8674172    2.5616777   -0.0995516 
N    -3.4994057    0.4630910    0.2269765 
H    -4.2377226    2.0373138    1.4246065 
H    -4.3588034   -0.1221574    0.3609022 
H    -3.1465956    0.2910407   -0.7462943 
O    -2.6765950    4.0812076   -0.1396768 
O    -1.3668073    2.3662909    0.8867290 
H    -1.4292653    1.4316027    1.2633009 
