13
Energy =
C    -3.9215041    1.6312478   -0.0308358 
C    -2.8409269    1.8605596    1.0537566 
C    -4.4253609    2.9802734   -0.6239137 
H    -4.3933284    3.0296521   -1.7310744 
H    -3.8266310    3.8435067   -0.2535213 
H    -5.4786080    3.1620223   -0.3181442 
N    -3.6375415    0.6502934   -1.1113381 
H    -4.7580585    1.2022057    0.5704125 
H    -3.7195454    1.0400503   -2.0786353 
H    -2.7052548    0.1960262   -1.0718523 
O    -3.1664183    2.7345132    2.0841843 
O    -1.5727382    1.2738032    1.1012344 
H    -1.4090241    0.5380971    0.4438862 
