13
Energy =
C    -3.9335936    1.6471153    0.1990330 
C    -2.6917101    2.1376119    0.9458882 
C    -4.4761118    2.7037259   -0.7792409 
H    -4.7194498    3.6460670   -0.2386137 
H    -5.4008142    2.3363080   -1.2738515 
H    -3.7230870    2.9378679   -1.5636913 
N    -3.7050549    0.3810672   -0.5188958 
H    -4.6881075    1.4768720    1.0063772 
H    -4.6271190   -0.0679941   -0.7373800 
H    -3.2334682    0.5482694   -1.4391502 
O    -2.8565601    2.7371797    2.1883214 
O    -1.4126987    2.0915948    0.3919983 
H    -1.4090652    1.5936102   -0.4833507 
