13
Energy =
C    -3.5042362    1.7509206    0.3173312 
C    -2.5470874    2.8164076   -0.2155051 
C    -4.9688639    2.1694966    0.1396011 
H    -5.1613541    3.1481093    0.6327392 
H    -5.6471491    1.4122340    0.5855013 
H    -5.2089538    2.2634404   -0.9420646 
N    -3.3273806    0.4497077   -0.3488295 
H    -3.2736011    1.6640503    1.4057969 
H    -2.3178411    0.1659905   -0.2896900 
H    -3.8583737   -0.2828901    0.1784441 
O    -2.7723145    4.1576653    0.0646807 
O    -1.3942639    2.4602695   -0.9027617 
H    -1.6344306    2.3275543   -1.8744214 
