13
Energy =
C    -3.6492430    1.6406166    0.1540188 
C    -2.4107306    2.4998464   -0.0745184 
C    -4.9252741    2.4788980    0.3666749 
H    -5.7873503    1.8239389    0.6143107 
H    -5.1598036    3.0604748   -0.5528303 
H    -4.7807169    3.2038819    1.1984401 
N    -3.8401580    0.6962045   -0.9653385 
H    -3.4385411    1.0830464    1.0981535 
H    -3.6937946   -0.2844546   -0.6271371 
H    -4.8096873    0.7306267   -1.3619578 
O    -2.5129930    3.8643864   -0.3209437 
O    -1.1528654    1.9155396   -0.0499423 
H    -0.9794521    1.5197884   -0.9621624 
