13
Energy =
C    -3.6199998    1.5771868    0.1965274 
C    -2.5614379    2.6396571    0.4463429 
C    -4.9870061    2.2002266   -0.1381563 
H    -4.9182575    2.8062560   -1.0697215 
H    -5.3184673    2.8687153    0.6865961 
H    -5.7558363    1.4108834   -0.2777405 
N    -3.2236092    0.6614109   -0.8847048 
H    -3.6887135    1.0086426    1.1551840 
H    -3.9698789   -0.0559282   -1.0419019 
H    -3.1066901    1.1987502   -1.7786903 
O    -2.1760757    3.5090368   -0.5692630 
O    -2.0031178    2.7818382    1.7093591 
H    -1.3233499    3.5305436    1.6753937 
