13
Energy =
C    -3.8114571    1.8907872    0.3742641 
C    -2.4674230    2.6001561    0.2829841 
C    -4.7689602    2.2812044   -0.7801820 
H    -4.2863337    2.9883393   -1.4925947 
H    -5.6774975    2.7766633   -0.3754637 
H    -5.0959639    1.3991869   -1.3715050 
N    -3.6423645    0.4303473    0.4142908 
H    -4.2446047    2.2262532    1.3470235 
H    -4.5773985   -0.0345681    0.4888575 
H    -3.1930042    0.1089180   -0.4782640 
O    -2.1173738    3.5582797    1.2272526 
O    -1.5986186    2.3369939   -0.7694437 
H    -0.7670683    2.8994079   -0.6452336 
