13
Energy =
C    -3.5762652    1.7104991    0.2696197 
C    -2.4941701    2.7482815   -0.0311451 
C    -4.9711512    2.3476191    0.2893044 
H    -5.7364471    1.6008521    0.5905720 
H    -5.2371669    2.7300869   -0.7207927 
H    -5.0056978    3.1941354    1.0107457 
N    -3.5862960    0.6182996   -0.7159338 
H    -3.3413349    1.3102157    1.2869661 
H    -2.6369750    0.1721557   -0.7500607 
H    -4.2426874   -0.1329992   -0.3947379 
O    -1.7163987    3.2344104    1.0115311 
O    -2.2889463    3.2473608   -1.3161504 
H    -2.9079833    2.8013291   -1.9776329 
