13
Energy =
C    -3.2891563    1.6826722    0.3144238 
C    -3.4677357    3.0762904   -0.2852339 
C    -4.4623356    1.2821883    1.2328205 
H    -5.2658757    2.0526859    1.2486222 
H    -4.1085036    1.1289629    2.2740183 
H    -4.9346260    0.3356247    0.8885832 
N    -3.1311840    0.6294288   -0.7088201 
H    -2.3622585    1.7579252    0.9345267 
H    -3.0587128    1.0289188   -1.6760325 
H    -2.2533252    0.0861720   -0.5315708 
O    -4.6723170    3.4531134   -0.8642617 
O    -2.4035384    3.9672077   -0.2998358 
H    -1.7800313    3.7214458   -1.0546718 
