13
Energy =
C    -3.8564282    1.9114337    0.3415372 
C    -2.6832123    2.8746821    0.2500943 
C    -4.8939628    2.1718549   -0.7643865 
H    -5.2498190    3.2252066   -0.7201908 
H    -5.7713940    1.5019472   -0.6427171 
H    -4.4438308    1.9988887   -1.7671273 
N    -3.4155845    0.5092655    0.2790001 
H    -4.3157595    2.1065850    1.3400986 
H    -4.2419772   -0.1302151    0.3437799 
H    -2.9451915    0.3264417   -0.6411133 
O    -1.7810174    2.7969250   -0.8064125 
O    -2.5446087    3.8888310    1.1887605 
H    -1.7141341    4.4227630    0.9665718 
