13
Energy =
C    -3.6525148    1.6376452    0.2265624 
C    -2.5007408    2.6340963    0.2897291 
C    -5.0157867    2.3192591   -0.0248543 
H    -5.7107853    2.1206777    0.8184294 
H    -5.4972606    1.9357177   -0.9511250 
H    -4.9177433    3.4226935   -0.1375266 
N    -3.4443808    0.6075555   -0.8046035 
H    -3.6766719    1.1525068    1.2327474 
H    -3.2833468    1.0734542   -1.7322495 
H    -2.5734940    0.0654506   -0.5914920 
O    -2.2927398    3.5388278   -0.7425295 
O    -1.6235980    2.6186941    1.3649681 
H    -0.9721272    1.8563625    1.2492065 
