13
Energy =
C    -3.7538931    1.7239632    0.2435418 
C    -2.5575554    2.6838342    0.2829117 
C    -5.0157478    2.3678057   -0.3727446 
H    -5.3638939    1.8078312   -1.2695575 
H    -4.8396833    3.4202951   -0.6901782 
H    -5.8514204    2.3612992    0.3595810 
N    -3.4668936    0.4768172   -0.4851696 
H    -3.9612647    1.4698209    1.3107037 
H    -3.1595874    0.7075988   -1.4621013 
H    -2.6470817   -0.0050213   -0.0421469 
O    -1.4501254    2.4547079   -0.5245816 
O    -2.5598807    3.7997831    1.1182611 
H    -3.4215226    3.8815859    1.6371604 
