13
Energy =
C    -3.6680317    1.5662040    0.1063831 
C    -2.7348992    2.6858568    0.5808031 
C    -5.1387330    2.0227588    0.0317780 
H    -5.2837764    2.7869969   -0.7618147 
H    -5.4613801    2.4599523    1.0035125 
H    -5.8002326    1.1552248   -0.1868836 
N    -3.2535446    0.9644313   -1.1814975 
H    -3.5865437    0.7799361    0.8964808 
H    -4.0286299    0.9385179   -1.8865344 
H    -2.4588629    1.4862717   -1.6248254 
O    -2.0742604    2.5518106    1.7952134 
O    -2.5293682    3.8407277   -0.1741180 
H    -3.0968874    3.8429061   -1.0076523 
