13
Energy =
C    -3.6042847    1.6864185    0.2523400 
C    -2.3661311    2.5528052    0.0028183 
C    -4.9355538    2.4382942    0.0254419 
H    -5.5627125    1.9295397   -0.7385220 
H    -4.7791105    3.4781833   -0.3360292 
H    -5.5152978    2.4900235    0.9706721 
N    -3.6173615    0.4751086   -0.5872647 
H    -3.5268577    1.3970437    1.3270033 
H    -2.6618671    0.0377987   -0.5893594 
H    -4.2583283   -0.2309209   -0.1558526 
O    -2.4198302    3.9365365    0.1359304 
O    -1.1338075    1.9552476   -0.2339780 
H    -0.4391053    2.6836773   -0.3417381 
