13
Energy =
C    -3.7001911    1.7233444    0.3005952 
C    -2.4899348    2.6255887    0.0879314 
C    -5.0254733    2.3708036   -0.1923119 
H    -5.5640636    1.7629370   -0.9465749 
H    -4.8436181    3.3616733   -0.6671972 
H    -5.7143391    2.5306646    0.6641798 
N    -3.4715617    0.3990203   -0.3156908 
H    -3.7686723    1.6079508    1.4093129 
H    -3.4124710   -0.3348627    0.4290595 
H    -4.2201566    0.1011684   -0.9811415 
O    -1.5321687    2.7519858    1.0886323 
O    -2.3263191    3.3386757   -1.0952609 
H    -1.4445706    3.8320541   -1.0517267 
