13
Energy =
C    -3.6846358    1.7023358    0.2624490 
C    -2.4419522    2.5566756    0.0562052 
C    -4.9704383    2.4868445   -0.0501800 
H    -5.0344790    3.3935554    0.5903796 
H    -5.8684870    1.8612262    0.1377015 
H    -4.9707655    2.8136636   -1.1145436 
N    -3.6445960    0.4828393   -0.5594217 
H    -3.6749584    1.4165305    1.3412925 
H    -4.5155051   -0.0797650   -0.4143862 
H    -3.5977798    0.7437902   -1.5749352 
O    -1.6098243    2.8520520    1.1298373 
O    -2.1512430    3.0882378   -1.1954077 
H    -1.2878855    3.6113833   -1.1283364 
