13
Energy =
C    -3.7337682    1.6916493    0.3652682 
C    -2.5096441    2.5898144    0.2251712 
C    -5.0221057    2.3623139   -0.1542867 
H    -5.4698509    1.7799639   -0.9883273 
H    -4.8311450    3.3903675   -0.5350017 
H    -5.7769529    2.4252679    0.6576246 
N    -3.5606189    0.4037885   -0.3250901 
H    -3.8480229    1.5025964    1.4595280 
H    -3.2571191    0.5827010   -1.3140625 
H    -2.7753225   -0.1203547    0.1300613 
O    -1.6985722    2.8436209    1.3236877 
O    -2.1850669    3.1544161   -1.0020097 
H    -1.3368806    3.6959909   -0.8917779 
