13
Energy =
C    -3.6392274    1.6776519    0.1936252 
C    -2.6547011    2.8253169    0.4236773 
C    -5.0130093    2.1685596   -0.3130184 
H    -5.8108594    1.8924953    0.4082241 
H    -5.2757264    1.7111961   -1.2919301 
H    -5.0387583    3.2745614   -0.4431416 
N    -3.1310600    0.6651235   -0.7473178 
H    -3.7744623    1.2029696    1.1935842 
H    -2.8581298    1.1357221   -1.6447437 
H    -2.2418747    0.2579784   -0.3675786 
O    -1.3519497    2.7500553   -0.0504730 
O    -3.0346393    3.9310445    1.1727095 
H    -3.0069323    3.6932566    2.1531784 
