13
Energy =
C    -3.7220569    1.6226176    0.1614112 
C    -2.6107225    2.6640732    0.1916790 
C    -5.1094333    2.2716536    0.1573602 
H    -5.2247129    2.9308437   -0.7314746 
H    -5.2592074    2.8807786    1.0750368 
H    -5.8947924    1.4862484    0.1152631 
N    -3.6337953    0.7324456   -1.0064103 
H    -3.6090224    1.0216208    1.0961254 
H    -3.6282071    1.3133443   -1.8811041 
H    -2.7127296    0.2328615   -0.9892881 
O    -1.8680167    2.8534646    1.3511710 
O    -2.3420393    3.4433750   -0.9280996 
H    -1.5872343    4.0819139   -0.7122389 
