13
Energy =
C    -3.6217172    1.6040484    0.3477494 
C    -2.4437654    2.5691922    0.2395846 
C    -4.9421364    2.3039142    0.0260905 
H    -5.7884135    1.5973933    0.1635110 
H    -4.9398611    2.6374279   -1.0364605 
H    -5.1002938    3.1852246    0.6835404 
N    -3.5112767    0.4451038   -0.5584629 
H    -3.6427371    1.2629182    1.4112319 
H    -2.5782439    0.4171465   -1.0392324 
H    -3.5900766   -0.4427166   -0.0089192 
O    -2.0333140    3.0487017   -0.9973973 
O    -1.8020834    3.0174901    1.3862404 
H    -2.3548510    3.7472917    1.8111203 
