13
Energy =
C    -3.6736153    1.6166997    0.1987310 
C    -2.4069152    2.4701753    0.2760780 
C    -4.9355755    2.4876077    0.2329483 
H    -5.8478487    1.8537460    0.2420525 
H    -4.9783007    3.1432667   -0.6643164 
H    -4.9453295    3.1289357    1.1422645 
N    -3.7168660    0.7962479   -1.0219801 
H    -3.6548093    0.9605575    1.1039347 
H    -2.8511017    0.2054380   -1.0758812 
H    -4.5181755    0.1235933   -0.9616239 
O    -1.7147663    2.5434231    1.4778733 
O    -1.9446445    3.2033050   -0.8152704 
H    -2.5339018    3.0542301   -1.6218703 
