13
Energy =
C    -3.8296543    1.8256556    0.3830081 
C    -2.6514203    2.8081360    0.4246520 
C    -4.9460121    2.2596269   -0.5855125 
H    -5.3374078    3.2613874   -0.2991296 
H    -5.7913176    1.5393529   -0.5634922 
H    -4.5580768    2.3317196   -1.6256872 
N    -3.3922484    0.4655773    0.0313810 
H    -4.2393027    1.8202854    1.4202269 
H    -4.2010196   -0.1976386    0.0979522 
H    -3.0510677    0.4421784   -0.9606065 
O    -2.7517751    4.0476200   -0.1981290 
O    -1.4862185    2.5078006    1.1279938 
H    -1.5223189    1.5722478    1.5072529 
