13
Energy =
C    -3.6585101    1.8013674    0.3162850 
C    -2.6161787    2.7924362   -0.1832470 
C    -5.0905244    2.3306718    0.1226678 
H    -5.3031863    2.4870071   -0.9586644 
H    -5.2179095    3.3041709    0.6455483 
H    -5.8332747    1.6150727    0.5352967 
N    -3.5262686    0.4966990   -0.3499882 
H    -3.4535644    1.6765951    1.4064026 
H    -4.2581895   -0.1632034    0.0035253 
H    -3.6793230    0.6132919   -1.3819906 
O    -1.7633475    3.4206772    0.7187015 
O    -2.5368008    3.1113098   -1.5356958 
H    -1.7896325    3.7789835   -1.6734661 
