13
Energy =
C    -3.9076415    1.8256824    0.2880692 
C    -2.6896091    2.7288720    0.5125318 
C    -4.7974277    2.3430759   -0.8559339 
H    -5.6988396    1.7037945   -0.9750317 
H    -4.2357360    2.3476989   -1.8175310 
H    -5.1355442    3.3826048   -0.6487602 
N    -3.5098300    0.4393758    0.0002937 
H    -4.4906054    1.8318985    1.2379301 
H    -4.3579069   -0.1580813   -0.1443211 
H    -2.9481378    0.4030600   -0.8859252 
O    -1.5988893    2.6385598   -0.3453382 
O    -2.6757459    3.7037820    1.5121216 
H    -3.5307666    3.7238859    2.0459412 
