13
Energy =
C    -3.6903785    1.7378984    0.2855763 
C    -2.4333539    2.5452944   -0.0055297 
C    -4.9577693    2.5609498    0.0382104 
H    -5.8565661    1.9500327    0.2687153 
H    -5.0073077    2.8756242   -1.0275943 
H    -4.9660667    3.4698277    0.6777983 
N    -3.7750048    0.5115435   -0.5226972 
H    -3.6429455    1.4667310    1.3676640 
H    -3.6857008    0.7626541   -1.5381520 
H    -2.9509804   -0.0982420   -0.3048045 
O    -1.5738452    2.8912646    1.0289433 
O    -2.1437090    2.9629004   -1.2982063 
H    -1.2767523    3.4849923   -1.2813674 
