13
Energy =
C    -3.7491366    1.9389340    0.3011883 
C    -2.4971010    2.7075644   -0.1317440 
C    -4.9637687    2.2988895   -0.5619214 
H    -4.7685559    2.0501676   -1.6289158 
H    -5.1996242    3.3822203   -0.4882185 
H    -5.8508579    1.7171791   -0.2282018 
N    -3.5754842    0.4776246    0.2515321 
H    -3.9506840    2.2416824    1.3558736 
H    -3.3304013    0.1884408   -0.7274509 
H    -2.7468328    0.2060300    0.8346524 
O    -1.5202039    2.0750748   -0.8900821 
O    -2.3207482    4.0498056    0.2021424 
H    -3.1085711    4.4274882    0.7058367 
