13
Energy =
C    -3.7401726    1.7456209    0.2642935 
C    -2.6498432    2.8230705    0.2641198 
C    -5.0163540    2.2213954   -0.4390775 
H    -4.8011373    2.4906025   -1.4972781 
H    -5.4466495    3.1091845    0.0723810 
H    -5.7748128    1.4075256   -0.4384640 
N    -3.3138591    0.4930117   -0.3798601 
H    -3.9739353    1.5364784    1.3352618 
H    -3.0284747    0.6871908   -1.3713245 
H    -2.4498157    0.1338159    0.0941586 
O    -1.5934665    2.7436965   -0.6351356 
O    -2.7059217    3.9064461    1.1396729 
H    -3.5378277    3.8913121    1.7100093 
