13
Energy =
C    -3.9425894    2.0070746    0.3101982 
C    -2.7933270    3.0060641    0.3546187 
C    -4.8096346    2.1384551   -0.9681054 
H    -4.8544671    1.1898934   -1.5449739 
H    -4.4156241    2.9199448   -1.6583610 
H    -5.8499279    2.4217799   -0.6994665 
N    -3.4501236    0.6279624    0.4432970 
H    -4.5677234    2.2526671    1.2022715 
H    -4.2597626   -0.0364209    0.4659265 
H    -2.8607640    0.3822865   -0.3899348 
O    -1.9602279    3.1732258   -0.7450658 
O    -2.5423064    3.7301156    1.5115684 
H    -2.0136420    3.1467309    2.1444981 
