13
Energy =
C    -5.0257200    1.9885135   -0.6825549 
C    -3.9100963    1.3062801    0.1182314 
H    -5.5505878    2.7280149   -0.0372206 
H    -5.7654780    1.2404047   -1.0361159 
H    -4.6069323    2.5247641   -1.5615023 
C    -2.8156455    2.2828551    0.5373460 
N    -4.5238509    0.6463658    1.2803932 
H    -3.4046524    0.5506507   -0.5290126 
H    -5.0973036   -0.1652774    0.9512363 
H    -3.7665065    0.2402661    1.8835990 
O    -3.0291859    3.6583647    0.5347429 
O    -1.5802728    1.7912368    0.9390497 
H    -0.9894280    2.5722700    1.1944560 
