13
Energy =
C    -3.6586241    1.6843952    0.2751406 
C    -2.4777370    2.6433370    0.1124129 
C    -5.0082911    2.3423696   -0.0862402 
H    -5.5300084    1.7898378   -0.8980989 
H    -4.8843143    3.3959784   -0.4246080 
H    -5.6812032    2.3495612    0.7974407 
N    -3.5194934    0.4515913   -0.5196090 
H    -3.6699350    1.4223905    1.3598958 
H    -3.3144152    0.7064486   -1.5174027 
H    -2.6889528   -0.0914685   -0.1848933 
O    -2.5179632    3.8932206    0.7140983 
O    -1.3299849    2.2640242   -0.5729134 
H    -0.7817923    1.6514149    0.0119972 
