13
Energy =
C    -3.5841434    1.6163803    0.1921018 
C    -2.4179794    2.5955721    0.0907148 
C    -4.9448935    2.3217274    0.1646435 
H    -5.7666055    1.5897538    0.3085786 
H    -5.0833028    2.8264172   -0.8171980 
H    -5.0027935    3.0920959    0.9641259 
N    -3.5647001    0.6312698   -0.9001807 
H    -3.4565085    1.1032643    1.1743329 
H    -2.5980276    0.2271144   -0.9787952 
H    -4.1934208   -0.1675348   -0.6511255 
O    -2.6279228    3.9620930   -0.0664660 
O    -1.1167702    2.1210873    0.1891468 
H    -0.4828500    2.9055354    0.1009285 
