13
Energy =
C    -3.4418635    1.7690139    0.3196114 
C    -2.6160888    2.8468464   -0.3736424 
C    -4.9412287    2.0807998    0.2758161 
H    -5.1465553    3.0736075    0.7303508 
H    -5.5182316    1.3054962    0.8209061 
H    -5.2810531    2.1013220   -0.7841059 
N    -3.2335882    0.4475684   -0.2910154 
H    -3.0996172    1.7595689    1.3815865 
H    -2.2032381    0.2591936   -0.3581510 
H    -3.6192450   -0.2893167    0.3449187 
O    -1.2668875    2.9806675   -0.0688517 
O    -3.1818847    3.6944040   -1.3197446 
H    -2.4589683    4.3070146   -1.6744717 
