13
Energy =
C    -3.8480126    1.6980580    0.3265129 
C    -2.5552546    2.4309573    0.7045833 
C    -4.7109574    2.5047646   -0.6494057 
H    -5.6481336    1.9505767   -0.8713646 
H    -4.1669713    2.6704812   -1.6054222 
H    -4.9737465    3.4939750   -0.2163260 
N    -3.5908353    0.3814863   -0.2738980 
H    -4.4401261    1.5612767    1.2603931 
H    -2.9343279    0.4840185   -1.0864210 
H    -3.1046795   -0.2302881    0.4244969 
O    -1.9227539    3.2439519   -0.2290854 
O    -1.9612636    2.2568471    1.9542897 
H    -2.4729677    1.6056309    2.5310334 
