13
Energy =
C    -3.6703201    1.5940106    0.2930020 
C    -2.3463589    2.3302602    0.1286809 
C    -4.8760233    2.5199646    0.0513351 
H    -5.8287044    1.9740510    0.2219612 
H    -4.8678207    2.9032985   -0.9941129 
H    -4.8485164    3.3910921    0.7416961 
N    -3.7600525    0.4347935   -0.6075281 
H    -3.6802864    1.2314943    1.3486342 
H    -4.6768176   -0.0543251   -0.4781069 
H    -3.7099196    0.7536008   -1.6063458 
O    -1.9301195    2.7597109   -1.1257055 
O    -1.5927633    2.6705796    1.2449045 
H    -2.0051673    3.4777881    1.6876285 
