13
Energy =
C    -3.8548159    1.7426736    0.3257726 
C    -2.5445663    2.5194473    0.3966244 
C    -4.9399211    2.5384796   -0.4045687 
H    -5.8855940    1.9556596   -0.4264702 
H    -4.6276081    2.7478092   -1.4511204 
H    -5.1277305    3.5063306    0.1092963 
N    -3.7172313    0.4354446   -0.3354509 
H    -4.1833555    1.5843780    1.3810725 
H    -3.3484770    0.5576466   -1.3090561 
H    -3.0264102   -0.1519875    0.1905998 
O    -2.0864314    2.9922878    1.6176339 
O    -1.8196111    2.8032030   -0.7538691 
H    -1.3022276    1.9811036   -1.0253187 
