13
Energy =
C    -3.6150191    1.5709905    0.1860846 
C    -2.4231834    2.5181106    0.2756101 
C    -4.9652437    2.3191503    0.1615089 
H    -5.5960964    2.0077536    1.0212400 
H    -5.5369075    2.0929570   -0.7658737 
H    -4.8347505    3.4233007    0.2053556 
N    -3.5441971    0.6881825   -0.9900034 
H    -3.5637180    0.9443633    1.1095746 
H    -3.4554741    1.2733411   -1.8573190 
H    -2.6659132    0.1172009   -0.9414120 
O    -2.0252413    3.2590212   -0.8290710 
O    -1.7604629    2.6907477    1.4825951 
H    -2.2982028    3.3123316    2.0687325 
