13
Energy =
C    -3.7899487    1.6590167    0.3225444 
C    -2.5270638    2.5074851    0.3855580 
C    -5.0364428    2.5210850    0.1120280 
H    -4.9521356    3.0867963   -0.8421405 
H    -5.1564742    3.2439617    0.9472336 
H    -5.9383724    1.8745597    0.0621350 
N    -3.7414791    0.6560397   -0.7516892 
H    -3.8771773    1.1413915    1.3074827 
H    -3.4895277    1.1278398   -1.6551550 
H    -2.9640557   -0.0173632   -0.5505450 
O    -1.7345791    2.4980607    1.5265006 
O    -2.1593346    3.3019258   -0.6940138 
H    -1.2988890    3.7833154   -0.4645075 
