13
Energy =
C    -3.8206963    1.7717397    0.1968681 
C    -2.6371432    2.7131689    0.3909956 
C    -4.8785393    2.3662000   -0.7398199 
H    -4.4348515    2.5867770   -1.7359612 
H    -5.3014149    3.3040203   -0.3201333 
H    -5.7059715    1.6370541   -0.8837983 
N    -3.4259694    0.4590373   -0.3390467 
H    -4.2673959    1.6348217    1.2114634 
H    -2.9434274    0.5916550   -1.2620326 
H    -2.7097928    0.0267596    0.2934610 
O    -1.5939865    2.7397547   -0.5250419 
O    -2.6197426    3.5946280    1.4627586 
H    -3.2267588    4.3745147    1.2580553 
