13
Energy =
C    -4.0571452    2.0608278    0.2316853 
C    -2.8468085    2.9800736    0.4491730 
C    -4.5184414    2.0165956   -1.2395160 
H    -5.4301670    1.3907257   -1.3471232 
H    -3.7127073    1.6006891   -1.8856170 
H    -4.7585410    3.0402530   -1.6036806 
N    -3.7748599    0.6922831    0.7107912 
H    -4.8813136    2.5149837    0.8314618 
H    -4.3315969    0.4983802    1.5767299 
H    -4.0500140   -0.0452495    0.0185993 
O    -2.3469802    3.7457934   -0.5999905 
O    -2.2662446    3.1208489    1.7101107 
H    -2.6662304    2.4736894    2.3729975 
