13
Energy =
C    -3.8602222    2.0723580    0.5432456 
C    -2.5038903    2.7178545    0.2432292 
C    -4.7260859    1.9126126   -0.7367099 
H    -4.1829346    2.2528688   -1.6479282 
H    -5.6424453    2.5363829   -0.6522373 
H    -5.0565789    0.8718531   -0.9299847 
N    -3.6945134    0.7890802    1.2596042 
H    -4.3798588    2.7978386    1.2153685 
H    -4.1417959    0.8523186    2.2054139 
H    -4.1342775   -0.0289347    0.7787749 
O    -2.3386660    4.0815156    0.4551460 
O    -1.4558811    1.9950678   -0.3268933 
H    -1.6854002    1.0137979   -0.3848889 
