13
Energy =
C    -3.7827970    1.6352585    0.2825668 
C    -2.4930049    2.4093202    0.5320589 
C    -4.7891337    2.4115279   -0.6047479 
H    -5.1152478    1.8199160   -1.4875987 
H    -4.3639615    3.3673965   -0.9831070 
H    -5.6981332    2.6650690   -0.0167097 
N    -3.5184704    0.3109364   -0.3002125 
H    -4.2176420    1.4922175    1.3018419 
H    -4.4160682   -0.2156331   -0.4186334 
H    -3.0784591    0.4172890   -1.2462046 
O    -2.3690998    3.1873291    1.6751354 
O    -1.4830049    2.4478109   -0.4220849 
H    -1.7315474    3.1136512   -1.1364572 
