13
Energy =
C    -5.3448176    1.8850874   -0.0267442 
C    -3.8715022    1.4855268   -0.0889495 
H    -5.5511084    2.7376876   -0.7094106 
H    -5.6072269    2.1828633    1.0127850 
H    -5.9848915    1.0253062   -0.3159100 
C    -2.9721818    2.6723068    0.2376304 
N    -3.6887805    0.3390268    0.8220681 
H    -3.6153322    1.1982408   -1.1377647 
H    -3.5504816   -0.5361407    0.2647834 
H    -2.8316044    0.4566448    1.4168419 
O    -2.7825005    3.0882178    1.5502040 
O    -2.3676256    3.3816379   -0.7899843 
H    -1.8277868    4.1360915   -0.3845023 
