13
Energy =
C    -3.6478665    1.6101421    0.3165438 
C    -2.4353409    2.5077335    0.0998689 
C    -4.9663002    2.3873101    0.1456545 
H    -5.0078827    3.2491496    0.8464686 
H    -5.8355253    1.7267850    0.3522974 
H    -5.0483775    2.7772213   -0.8951630 
N    -3.6136072    0.4527362   -0.5990552 
H    -3.5814278    1.2590260    1.3742680 
H    -3.5040361   -0.4336660   -0.0521031 
H    -4.4861905    0.3546838   -1.1702638 
O    -2.2549103    3.1759709   -1.1055527 
O    -1.5347454    2.7275477    1.1357163 
H    -1.9247396    3.4063939    1.7720154 
