13
Energy =
C    -3.4234828    1.6590950    0.2336175 
C    -2.6900628    2.8881871   -0.2887702 
C    -4.8659922    1.9925895    0.6470178 
H    -4.8691587    2.7768652    1.4360686 
H    -5.3753369    1.0910877    1.0486988 
H    -5.4418960    2.3751597   -0.2252067 
N    -3.4368248    0.5675039   -0.7535221 
H    -2.8519891    1.3293691    1.1339515 
H    -3.8440292   -0.2946398   -0.3189034 
H    -4.0489811    0.8235729   -1.5658506 
O    -1.8096095    3.5748923    0.5363718 
O    -2.9402842    3.3747364   -1.5651290 
H    -2.3585127    2.8619549   -2.2111002 
