13
Energy =
C    -3.6779716    1.7280543    0.2520760 
C    -2.4714749    2.6509102    0.0567669 
C    -5.0212620    2.4321704   -0.0177681 
H    -5.8712868    1.7512194    0.2062005 
H    -5.1004184    2.7578790   -1.0776073 
H    -5.1244640    3.3329638    0.6289200 
N    -3.5907210    0.5131564   -0.5738938 
H    -3.6306075    1.4365566    1.3310216 
H    -4.3133878   -0.1769225   -0.2581217 
H    -3.7991814    0.7269660   -1.5779453 
O    -1.7232780    3.0261650    1.1660310 
O    -2.1256678    3.1697415   -1.1912268 
H    -2.7358987    2.8265691   -1.9147206 
