13
Energy =
C    -3.8329880    1.8585947    0.4220476 
C    -2.5112849    2.6134352    0.4080257 
C    -4.6861692    2.1496990   -0.8439989 
H    -4.1537473    2.8280647   -1.5495254 
H    -5.6350575    2.6513293   -0.5563694 
H    -4.9533223    1.2427086   -1.4229502 
N    -3.5950141    0.4113616    0.6076658 
H    -4.3844478    2.2599655    1.3070018 
H    -4.0056654    0.1018072    1.5205098 
H    -4.0284797   -0.1877653   -0.1316073 
O    -2.1896080    3.4801783    1.4446202 
O    -1.6086432    2.4389594   -0.6323664 
H    -1.0348376    1.6383458   -0.4121603 
