13
Energy =
C    -3.5356564    1.6682151    0.2649559 
C    -2.6035739    2.8622878    0.1071836 
C    -4.9993480    2.0702476    0.0541756 
H    -5.1399760    2.4379071   -0.9870338 
H    -5.2870593    2.8814702    0.7574544 
H    -5.6709054    1.2013786    0.2141486 
N    -3.2127599    0.5987720   -0.6914554 
H    -3.3992160    1.3059401    1.3129811 
H    -2.2048119    0.3301842   -0.5773259 
H    -3.7614150   -0.2602845   -0.4490272 
O    -1.5333506    3.0224329    0.9761814 
O    -2.7674259    3.7606274   -0.9388236 
H    -2.3125317    3.3773075   -1.7545377 
