13
Energy =
C    -3.7417329    1.6203586    0.1877627 
C    -2.8002260    2.7719284    0.5549125 
C    -5.2080832    2.0743025    0.1525168 
H    -5.3678608    2.8159783   -0.6610453 
H    -5.4979461    2.5403718    1.1205282 
H    -5.8812366    1.2089616   -0.0295443 
N    -3.4114167    1.0336459   -1.1200301 
H    -3.6200500    0.8536065    0.9912153 
H    -2.4242052    0.6800511   -1.1020254 
H    -4.0135723    0.1917327   -1.2845205 
O    -2.2453458    2.8137890    1.8282852 
O    -2.5000330    3.7935395   -0.3455737 
H    -2.9577514    3.6348882   -1.2319035 
