13
Energy =
C    -3.8306558    1.8568302    0.3739145 
C    -2.5276654    2.6442313    0.3697355 
C    -4.7677427    2.3062434   -0.7592276 
H    -5.7311876    1.7554385   -0.7129761 
H    -4.2959889    2.1282722   -1.7509620 
H    -4.9839586    3.3948926   -0.6712797 
N    -3.5974348    0.4076202    0.2700598 
H    -4.3073679    2.0823437    1.3583245 
H    -4.5073948   -0.1021165    0.3670868 
H    -3.2156330    0.1767188   -0.6798534 
O    -2.4103968    3.7891086    1.1456104 
O    -1.4715389    2.2716243   -0.4509377 
H    -0.9438800    1.5557819    0.0260915 
