13
Energy =
C    -3.6568159    1.5798031    0.2338464 
C    -2.3883703    2.4210562    0.3240426 
C    -4.9203098    2.4331882   -0.0449999 
H    -5.4377359    2.1217554   -0.9785217 
H    -4.6749837    3.5134178   -0.1632280 
H    -5.6452470    2.3348098    0.7914983 
N    -3.5310277    0.5275653   -0.7859562 
H    -3.7462697    1.0915532    1.2340761 
H    -4.4041939   -0.0498599   -0.8176225 
H    -3.3979184    0.9638476   -1.7315524 
O    -1.8877310    3.0616842   -0.8026589 
O    -1.7820200    2.6430720    1.5538494 
H    -2.3005769    3.3494062    2.0539248 
