13
Energy =
C    -3.7693349    1.6976103    0.2447782 
C    -2.5424469    2.6085763    0.3363715 
C    -5.0329644    2.4440696   -0.2221747 
H    -5.2457833    3.3069072    0.4490609 
H    -5.9155924    1.7681125   -0.2007567 
H    -4.9115506    2.8320970   -1.2565164 
N    -3.5369614    0.5350546   -0.6278533 
H    -3.9269346    1.3383029    1.2919419 
H    -4.3118690   -0.1587208   -0.5000680 
H    -3.5501304    0.8164063   -1.6369528 
O    -2.0050506    2.8918351    1.5861971 
O    -1.9727311    3.2050422   -0.7887273 
H    -2.4479803    2.9291660   -1.6324915 
