13
Energy =
C    -3.8146516    1.9330485    0.3317098 
C    -2.7193351    2.9484906    0.0328026 
C    -4.9774679    2.0003454   -0.6816098 
H    -4.8045566    2.7744815   -1.4623974 
H    -5.9294030    2.2389489   -0.1621584 
H    -5.1161523    1.0294214   -1.2052583 
N    -3.3026461    0.5530708    0.3716934 
H    -4.1996361    2.2101862    1.3433296 
H    -2.8101565    0.3455337   -0.5320080 
H    -2.5721330    0.4795769    1.1201798 
O    -2.0312846    2.9155469   -1.1743086 
O    -2.3980320    3.9185389    0.9707521 
H    -1.6533453    4.4935312    0.5968024 
