13
Energy =
C    -3.8386746    1.8644853    0.3228100 
C    -2.6436190    2.8073442    0.2364366 
C    -4.8183874    2.0481565   -0.8704153 
H    -4.4365778    2.7928014   -1.6046425 
H    -5.8044040    2.4095595   -0.5067813 
H    -5.0015117    1.1166310   -1.4444908 
N    -3.3864483    0.4628667    0.4504675 
H    -4.3678777    2.1664843    1.2591002 
H    -3.6303214    0.0897294    1.3981563 
H    -3.8048340   -0.1890126   -0.2515109 
O    -1.6822847    2.6480901   -0.7545022 
O    -2.5553410    3.8990627    1.0932091 
H    -3.1682384    4.6284855    0.7605272 
