13
Energy =
C    -3.6402508    1.6766430    0.3422504 
C    -2.5297615    2.7145107    0.1641849 
C    -5.0304858    2.2725218    0.1083707 
H    -5.8123900    1.5105514    0.3098450 
H    -5.1228983    2.6056429   -0.9478184 
H    -5.1985436    3.1506245    0.7696365 
N    -3.5135762    0.5142190   -0.5597354 
H    -3.5651697    1.3541039    1.4076851 
H    -2.6389487    0.5683733   -1.1380334 
H    -3.4266217   -0.3600260    0.0095198 
O    -1.2129688    2.3077544   -0.0176831 
O    -2.8014108    4.0729602    0.2745517 
H    -1.9360842    4.5845168    0.1545977 
