13
Energy =
C    -3.4481269    1.5547736    0.1274633 
C    -2.6660429    2.7614034   -0.3874313 
C    -4.7446750    1.9693466    0.8317032 
H    -4.5359531    2.6861173    1.6548022 
H    -5.2618832    1.0803920    1.2492064 
H    -5.4260032    2.4601942    0.1003494 
N    -3.7998697    0.6301417   -0.9603113 
H    -2.7842391    1.0416058    0.8620437 
H    -2.9476637    0.4355675   -1.5423330 
H    -4.0906836   -0.2894040   -0.5527930 
O    -3.3063966    3.9574069   -0.6887927 
O    -1.2939319    2.6632682   -0.5804007 
H    -0.8249859    2.7620230    0.3077098 
