13
Energy =
C    -3.7744812    1.8186045    0.2686307 
C    -2.6439113    2.8380045    0.1829618 
C    -4.9475339    2.1840902   -0.6480192 
H    -5.3898038    3.1616150   -0.3593012 
H    -5.7364571    1.4031618   -0.5794404 
H    -4.6093982    2.2419109   -1.7065378 
N    -3.3407175    0.4544187   -0.0726682 
H    -4.1207246    1.8391934    1.3305432 
H    -2.9451282    0.4484922   -1.0451677 
H    -2.5490346    0.1745270    0.5555571 
O    -1.7112693    2.7774806   -0.8439052 
O    -2.5704118    3.8727307    1.1047469 
H    -3.2464785    4.5809215    0.8597130 
