13
Energy =
C    -3.6457245    1.7320660    0.2715661 
C    -2.3919589    2.5137088   -0.1003627 
C    -4.9448309    2.5467568    0.0453303 
H    -4.7268066    3.5590088   -0.3669943 
H    -5.4906509    2.6765894    1.0039996 
H    -5.6295960    2.0501422   -0.6749308 
N    -3.7196780    0.4596107   -0.4628581 
H    -3.5293787    1.5102991    1.3596432 
H    -4.5819412   -0.0650196   -0.1841704 
H    -3.7792974    0.6552642   -1.4924772 
O    -1.3899996    2.7200792    0.8407451 
O    -2.2525656    3.0604675   -1.3709803 
H    -1.3504619    3.5153762   -1.4272016 
