13
Energy =
C    -3.9986877    1.8247827    0.3040089 
C    -2.7740944    2.7257388    0.3985756 
C    -4.9173018    2.2334313   -0.8509603 
H    -5.8014362    1.5608676   -0.8847996 
H    -4.3798295    2.1567722   -1.8217851 
H    -5.2700641    3.2791313   -0.7178893 
N    -3.6492602    0.4062369    0.1299191 
H    -4.5549915    1.9529292    1.2634410 
H    -3.0078836    0.3000056   -0.6945037 
H    -3.1082261    0.0819786    0.9667737 
O    -1.8003791    2.6999570   -0.5951580 
O    -2.6327473    3.5950776    1.4724260 
H    -1.7710986    4.1148970    1.3655621 
