13
Energy =
C    -4.0617161    1.9000658    0.1954374 
C    -2.8288507    2.7843544    0.3496749 
C    -4.8343503    2.2060547   -1.0954976 
H    -5.7695083    1.6087797   -1.1411645 
H    -4.2100263    1.9476107   -1.9805904 
H    -5.0999179    3.2841832   -1.1510224 
N    -3.7077570    0.4732751    0.1899976 
H    -4.7122862    2.1296548    1.0733457 
H    -3.1872107    0.2444588    1.0708970 
H    -4.5834991   -0.1005941    0.2145347 
O    -1.9948609    3.0515284   -0.7332498 
O    -2.5184186    3.3153810    1.5973458 
H    -1.6660680    3.8559217    1.5249240 
