13
Energy =
C    -3.6953307    1.6865101    0.2600955 
C    -2.7714380    2.8967466    0.1802501 
C    -5.1790528    2.0447734   -0.0384065 
H    -5.6259781    1.4500079   -0.8605586 
H    -5.2909370    3.1127918   -0.3316752 
H    -5.8018818    1.8820380    0.8672015 
N    -3.2026927    0.6034560   -0.6173764 
H    -3.6336391    1.3555703    1.3250678 
H    -2.8774742   -0.2055275   -0.0371727 
H    -3.9195577    0.2327989   -1.2814191 
O    -1.8714181    3.1516693    1.2113400 
O    -2.8135575    3.7575783   -0.9130754 
H    -2.1081223    4.4723508   -0.7973209 
