13
Energy =
C    -3.7247675    1.6691185    0.3001065 
C    -2.3967004    2.4169649    0.1421118 
C    -4.9324731    2.5986793    0.1529412 
H    -4.9831113    3.0260596   -0.8709655 
H    -4.8834112    3.4308681    0.8894248 
H    -5.8698896    2.0263988    0.3270124 
N    -3.8980365    0.5587628   -0.6576507 
H    -3.7201346    1.2756899    1.3471283 
H    -3.1276571    0.5287319   -1.3690108 
H    -3.8545111   -0.3562402   -0.1483139 
O    -1.5255276    2.4838306    1.2212051 
O    -2.0327158    3.0307844   -1.0558584 
H    -2.7566343    2.9366074   -1.7521137 
