13
Energy =
C    -3.7337232    1.8036405    0.4191728 
C    -2.5011685    2.6850337    0.2434712 
C    -4.8905094    2.2721852   -0.4685087 
H    -5.1778717    3.3164641   -0.2159338 
H    -5.7732843    1.6133257   -0.3213146 
H    -4.5966176    2.2374760   -1.5407297 
N    -3.4785577    0.3834394    0.1290865 
H    -4.0411077    1.9109314    1.4876296 
H    -3.1409021    0.2761255   -0.8583005 
H    -2.7195647    0.0265495    0.7576294 
O    -2.1847235    3.6267959    1.2116738 
O    -1.7140744    2.5962387   -0.8981189 
H    -1.1139902    1.7889454   -0.8261151 
