13
Energy =
C    -3.8524539    1.8004650    0.2780152 
C    -2.7695780    2.8608664    0.5052960 
C    -4.8605629    2.2379300   -0.7990184 
H    -4.3500456    2.3810621   -1.7785076 
H    -5.3400693    3.2007852   -0.5154594 
H    -5.6610154    1.4769690   -0.9245225 
N    -3.2716402    0.5044698   -0.1035469 
H    -4.3832662    1.6733761    1.2499388 
H    -4.0292544   -0.2038065   -0.2494734 
H    -2.7503778    0.5964662   -1.0102016 
O    -1.7032056    2.9568942   -0.3819667 
O    -2.8655229    3.7938771    1.5395213 
H    -3.7037378    3.6788647    2.0877032 
