13
Energy =
C    -3.7254843    1.7263268    0.2920796 
C    -2.5071651    2.6524215    0.4093039 
C    -4.8913961    2.4125838   -0.4463377 
H    -5.2237751    1.8118115   -1.3213789 
H    -4.6070698    3.4188829   -0.8290742 
H    -5.7604737    2.5379343    0.2329856 
N    -3.4591103    0.4395517   -0.3855332 
H    -4.0391040    1.5355624    1.3458500 
H    -2.4445271    0.3128556   -0.6203339 
H    -3.7161814   -0.3541505    0.2469028 
O    -1.2708277    2.3087344   -0.1224868 
O    -2.6302717    3.8644331    1.0759140 
H    -2.6006336    3.6996486    2.0711328 
