13
Energy =
C    -3.6657402    1.6368163    0.3226584 
C    -2.5165336    2.6435775    0.3536432 
C    -5.0314556    2.3019614    0.5099541 
H    -5.0582602    2.8867583    1.4550994 
H    -5.8303091    1.5305646    0.5387707 
H    -5.2428135    2.9892338   -0.3379907 
N    -3.7249548    0.8572341   -0.9292001 
H    -3.4837032    0.9610543    1.1939952 
H    -2.9877848    1.1598575   -1.6110244 
H    -3.5282392   -0.1505875   -0.7214942 
O    -1.2486415    2.2235562    0.7287749 
O    -2.6941050    3.9533555   -0.0738064 
H    -2.6371693    3.9774542   -1.0806929 
