13
Energy =
C    -3.4992021    1.6987434    0.2906388 
C    -2.6055870    2.8699547   -0.1269216 
C    -4.9772707    2.1041397    0.3373977 
H    -5.5992573    1.2613249    0.7049558 
H    -5.3204081    2.3767685   -0.6853146 
H    -5.1328127    2.9801879    1.0029950 
N    -3.3889794    0.5531992   -0.6264314 
H    -3.1630727    1.4030670    1.3115788 
H    -2.3774355    0.3295767   -0.7974887 
H    -3.7998916   -0.2955401   -0.1716195 
O    -1.3921016    2.6387004   -0.7615172 
O    -2.9149192    4.1685075    0.2623938 
H    -2.7247520    4.2729861    1.2477025 
