24
UFF-Energy = 0.0638934
C     1.3503676    2.6588619   -0.0576321 
C     0.0272389    2.7122322    0.2522119 
C    -0.7283196    1.5950430    0.1520949 
C     1.9083832    1.4916851   -0.4676238 
C     1.1466231    0.3684082   -0.5775295 
C    -0.1758965    0.4257113   -0.2584079 
O    -0.5793252    3.8990548    0.6756203 
H     0.0541728    4.6887742    0.7368429 
H    -0.7981171   -0.4644433   -0.3220496 
H     2.9686284    1.4621296   -0.7054541 
H     1.9654159    3.5485824    0.0243830 
H    -1.7807205    1.6483336    0.4093318 
C     1.7742043   -0.9394379   -1.0112777 
C     2.4355625   -1.6850265    0.1737791 
H     2.5379183   -0.7361897   -1.7943224 
H     1.0100913   -1.6002273   -1.4826357 
C     1.4278425   -2.0381678    1.2560531 
O     0.2474794   -2.7083807    0.9430721 
O     1.6652119   -1.6606613    2.5729330 
H     0.9034676   -1.9935395    3.1490627 
N     3.1353144   -2.8987392   -0.3013724 
H     3.1640492   -0.9970952    0.6653938 
H     3.0901771   -3.0179033   -1.3409971 
H     4.1482163   -2.8517656   -0.0392992 
