24
UFF-Energy = 0.0656727
C     0.9467597    2.4266118    0.0344167 
C    -0.0997140    2.2305078    0.8801586 
C    -0.5507166    0.9760787    1.1056963 
C     1.5381665    1.3686971   -0.5759966 
C     1.0901127    0.1037535   -0.3436688 
C     0.0351324   -0.0855921    0.4963967 
O    -0.7295548    3.2968692    1.5291028 
H    -0.3483722    4.2064686    1.2908002 
H    -0.3468847   -1.0857945    0.6833220 
H     2.3661001    1.5450133   -1.2598580 
H     1.3106515    3.4299149   -0.1604099 
H    -1.3903429    0.8357426    1.7777339 
C     1.7309934   -1.0777081   -1.0413931 
C     1.0097023   -1.4363858   -2.3518034 
H     1.7207377   -1.9612570   -0.3655736 
H     2.8042381   -0.8720935   -1.2552429 
C     1.1475196   -0.3297333   -3.3941031 
O     0.0489011    0.0497906   -4.1500748 
O     2.3756073    0.2733252   -3.6390398 
H     2.9282936   -0.3386860   -4.2197136 
N     1.5364551   -2.7382397   -2.8140276 
H    -0.0840278   -1.5237724   -2.1435439 
H     0.7440752   -3.4168977   -2.9128874 
H     1.9685656   -2.6668143   -3.7661592 
