24
UFF-Energy = 0.0598103
C     0.9078598    2.5519201   -0.1191975 
C    -0.3769470    2.4137961    0.3025594 
C    -0.9545240    1.1912658    0.2939829 
C     1.6071174    1.4694570   -0.5463287 
C     1.0286192    0.2363789   -0.5517194 
C    -0.2597523    0.1053867   -0.1296823 
O    -1.1251989    3.5083131    0.7482846 
H    -0.6265527    4.3909153    0.7356563 
H    -0.7416127   -0.8689165   -0.1237862 
H     2.6329194    1.5982961   -0.8835206 
H     1.3764834    3.5293668   -0.1138735 
H    -1.9807063    1.0906264    0.6324593 
C     1.8091340   -0.9803326   -1.0122847 
C     2.6809933   -1.6215575    0.1006573 
H     2.4556934   -0.7005708   -1.8756440 
H     1.1100992   -1.7487160   -1.4104297 
C     3.8409272   -0.7216262    0.5469784 
O     4.5097539    0.0446406   -0.4006685 
O     4.3195731   -0.7105909    1.8553862 
H     3.8324455   -1.3867233    2.4236348 
N     1.8350282   -2.0840569    1.2203361 
H     3.1889216   -2.5091118   -0.3422018 
H     1.3479603   -1.2707970    1.6696543 
H     1.0927359   -2.7312095    0.8618475 
