24
UFF-Energy = 0.055964
C     2.0702570    2.9388853   -1.0251345 
C     1.0135642    3.1349268   -1.8581602 
C     0.0936982    2.1558495   -2.0121271 
C     2.1972453    1.7691339   -0.3469546 
C     1.2662801    0.7859023   -0.4957786 
C     0.2172887    0.9832723   -1.3403798 
O     0.8501176    4.3293014   -2.5677734 
H     1.5924277    5.0047349   -2.4208276 
H    -0.5277758    0.2054241   -1.4876244 
H     3.0606644    1.6164008    0.3011217 
H     2.8187773    3.7151621   -0.9067088 
H    -0.7401757    2.3219570   -2.6853245 
C     1.4190077   -0.5296985    0.2379364 
C     2.3677633   -1.4934581   -0.5032267 
H     0.4262665   -1.0235026    0.3453679 
H     1.7720570   -0.3498306    1.2762143 
C     3.8003296   -0.9636125   -0.5902916 
O     4.3768485   -0.7716505   -1.8376623 
O     4.5336796   -0.6139881    0.5458042 
H     4.0676862   -0.8768589    1.3995469 
N     2.2865251   -2.8192099    0.1342747 
H     2.0126091   -1.5856259   -1.5579375 
H     2.8292193   -3.5066778   -0.4426444 
H     2.7422792   -2.8016020    1.0769679 
