24
UFF-Energy = 0.0715447
C     1.6576215    2.6768135   -0.6513525 
C     0.4738900    2.8713114   -0.0112667 
C    -0.2960772    1.8064777    0.3077759 
C     2.0647236    1.4211563   -0.9663251 
C     1.2916100    0.3475783   -0.6427004 
C     0.1059258    0.5483874   -0.0044682 
O     0.0258067    4.1515345    0.3296593 
H     0.6541768    4.8971058    0.0502247 
H    -0.5294211   -0.2941340    0.2570070 
H     3.0126043    1.2844159   -1.4807220 
H     2.2809485    3.5248419   -0.9136338 
H    -1.2394428    1.9761900    0.8154060 
C     1.7413934   -1.0570851   -0.9829816 
C     2.2308962   -1.8372985    0.2664276 
H     2.5473090   -1.0501134   -1.7522131 
H     0.8883540   -1.5964754   -1.4562322 
C     2.3649866   -3.3255660   -0.0128318 
O     2.3515588   -3.8199869   -1.3115698 
O     2.5154018   -4.2146356    1.0407155 
H     3.4866399   -4.2077045    1.3160697 
N     3.5123686   -1.2977995    0.7713651 
H     1.4470877   -1.7755645    1.0575452 
H     3.7960854   -0.4163628    0.2845369 
H     3.4122534   -1.0517983    1.7846533 
