24
UFF-Energy = 0.0481196
C     1.3666028    2.5430282    0.5856446 
C     0.0670360    2.6457051    0.1995509 
C    -0.5364916    1.5955851   -0.4019817 
C     2.0528108    1.3911110    0.3726268 
C     1.4429282    0.3303057   -0.2263485 
C     0.1451055    0.4425901   -0.6205860 
O    -0.6692466    3.8167215    0.4061710 
H    -0.1450581    4.5649283    0.8469955 
H    -0.3554742   -0.3865046   -1.1149736 
H     3.0984071    1.3278729    0.6725789 
H     1.8605057    3.3844057    1.0597472 
H    -1.5718261    1.6929053   -0.7103245 
C     2.2116729   -0.9466180   -0.4931407 
C     2.9409775   -0.9038462   -1.8487716 
H     1.5155757   -1.8153977   -0.4867036 
H     2.9430507   -1.1409871    0.3239085 
C     4.0457781    0.1559275   -1.8692339 
O     4.9382334    0.2325723   -0.8054414 
O     4.1987514    1.0421271   -2.9342442 
H     3.5276486    0.8794497   -3.6699827 
N     3.4665609   -2.2480962   -2.1328561 
H     2.1925284   -0.6440830   -2.6317309 
H     3.8568890   -2.2609248   -3.1053870 
H     4.2738238   -2.4508010   -1.4930845 
