24
UFF-Energy = 0.063246
C     1.4109529    1.6968820    0.9898517 
C     0.5518923    2.6090435    0.4619943 
C     0.0535614    2.4170695   -0.7795445 
C     1.7718577    0.6034716    0.2710753 
C     1.2805429    0.4146795   -0.9856638 
C     0.4113583    1.3257935   -1.5028690 
O     0.1653953    3.7505412    1.1709471 
H     0.5494431    3.8016984    2.1084019 
H    -0.0152792    1.1718569   -2.4899019 
H     2.4457496   -0.1243683    0.7163062 
H     1.8063396    1.8359891    1.9903529 
H    -0.6431996    3.1452467   -1.1800497 
C     1.6682433   -0.8157562   -1.7851093 
C     0.5450034   -1.8717559   -1.8311163 
H     2.5867219   -1.2770096   -1.3591928 
H     1.9334871   -0.5124524   -2.8214081 
C     0.0574648   -2.2341325   -0.4211763 
O    -1.1384289   -1.7183764    0.0638229 
O     0.8189224   -3.0518866    0.4148080 
H     1.6607473   -3.3754865   -0.0358020 
N    -0.5318948   -1.3845860   -2.7145400 
H     0.9644854   -2.8086594   -2.2648175 
H    -0.2708737   -1.5738450   -3.7107468 
H    -1.4099604   -1.9317869   -2.5356991 
