24
UFF-Energy = 0.0416435
C     2.5426762    2.2301707   -0.7329468 
C     1.3204844    2.7800336   -0.9611665 
C     0.2280358    1.9846351   -1.0081207 
C     2.6654444    0.8897910   -0.5573052 
C     1.5669889    0.0856441   -0.6108548 
C     0.3451016    0.6440988   -0.8332120 
O     1.1596494    4.1561787   -1.1508148 
H     2.0206183    4.6873185   -1.0789935 
H    -0.5460597    0.0229029   -0.8612912 
H     3.6477228    0.4639535   -0.3656748 
H     3.4234593    2.8614031   -0.6865347 
H    -0.7424858    2.4363588   -1.1819878 
C     1.6977659   -1.4113434   -0.4007348 
C     1.4834738   -1.8265995    1.0713960 
H     2.6996613   -1.7589073   -0.7399542 
H     0.9595249   -1.9426971   -1.0398714 
C     2.5534636   -1.2471538    1.9925870 
O     2.2564427   -0.8987158    3.3058743 
O     3.8769419   -1.1786105    1.5692165 
H     4.4423269   -0.8400793    2.3384996 
N     0.1118928   -1.4662205    1.4793590 
H     1.6155321   -2.9300159    1.1455095 
H    -0.5643417   -2.1184088    1.0189617 
H     0.0010353   -1.6127742    2.5125015 
