24
UFF-Energy = 0.0705757
C     0.8012803    1.9924490    0.9836841 
C    -0.2389743    2.3880469    0.2147891 
C    -0.5618760    1.6905559   -0.8983840 
C     1.5270781    0.8980573    0.6387723 
C     1.2074940    0.1901273   -0.4806767 
C     0.1607632    0.5970562   -1.2513377 
O    -0.9808391    3.5092917    0.5723167 
H    -0.5753030    4.3491547    0.1731842 
H    -0.1039549    0.0513850   -2.1536733 
H     2.3702517    0.5977061    1.2582197 
H     1.0450415    2.5619687    1.8741050 
H    -1.4017342    2.0153707   -1.5036920 
C     2.0314099   -1.0115750   -0.8905310 
C     3.1577601   -0.6196163   -1.8770929 
H     1.3649874   -1.7669864   -1.3630279 
H     2.4685771   -1.5097770    0.0051595 
C     4.1928926    0.3123752   -1.2412957 
O     4.5973412    0.1012135    0.0737724 
O     4.7627535    1.3686677   -1.9521102 
H     4.5049522    1.3470377   -2.9276125 
N     3.7999806   -1.8332257   -2.4050831 
H     2.6996776   -0.0662249   -2.7279155 
H     4.2066389   -2.3932519   -1.6169155 
H     3.0917557   -2.4330492   -2.8898903 
