24
UFF-Energy = 0.0755522
C     2.2158958    2.4430101   -0.4564158 
C     0.9917422    2.9832298   -0.2134998 
C    -0.0948314    2.1800734   -0.1613499 
C     2.3457063    1.1058545   -0.6500227 
C     1.2504837    0.2975469   -0.6105637 
C     0.0283620    0.8431552   -0.3567480 
O     0.8232068    4.3569571   -0.0142572 
H     1.6860071    4.8889478   -0.0479994 
H    -0.8560952    0.2121157   -0.2956205 
H     3.3324159    0.6881467   -0.8346127 
H     3.0939024    3.0790449   -0.4932239 
H    -1.0641195    2.6208712    0.0455587 
C     1.3988902   -1.1976526   -0.8039801 
C     1.6826032   -1.9269092    0.5318921 
H     2.2297348   -1.3923357   -1.5180281 
H     0.4790139   -1.6193530   -1.2693538 
C     0.5282359   -1.7571405    1.5151836 
O     0.7680163   -1.2798662    2.7950318 
O    -0.7776787   -2.0501828    1.1373831 
H    -0.9125906   -3.0493625    1.1683939 
N     2.0328626   -3.3486852    0.2890991 
H     2.5568788   -1.4393290    1.0234232 
H     1.3334280   -4.0036743    0.7125776 
H     2.0869125   -3.5879533   -0.7291124 
