24
UFF-Energy = 0.0899395
C     1.5926304    2.3728742   -1.6467225 
C     0.3488911    2.9086010   -1.5239725 
C    -0.5977883    2.2461202   -0.8220396 
C     1.8836653    1.1835546   -1.0615757 
C     0.9350144    0.5220993   -0.3433807 
C    -0.3127803    1.0565549   -0.2349442 
O     0.0171024    4.1358690   -2.1070665 
H     0.7674526    4.5498605   -2.6499493 
H    -1.0919989    0.5319360    0.3105438 
H     2.8755211    0.7558827   -1.1869517 
H     2.3548570    2.8897699   -2.2196586 
H    -1.5888414    2.6787291   -0.7448417 
C     1.2545071   -0.8223664    0.2804855 
C     1.0500991   -2.0465966   -0.6785008 
H     0.6238538   -0.9659518    1.1863071 
H     2.2865721   -0.7721942    0.6871227 
C     0.4701365   -1.6788164   -2.0567966 
O     1.3241584   -1.3304213   -3.0980829 
O    -0.9081591   -1.6145919   -2.2732279 
H    -1.4416472   -1.8543486   -1.4516498 
N     2.2716542   -2.8879058   -0.7683931 
H     0.2709558   -2.6931106   -0.2170017 
H     2.6210344   -2.9592234   -1.7558858 
H     3.0793571   -2.5287756   -0.2115159 
