24
UFF-Energy = 0.0406617
C     1.0176779    1.4313612    1.3745699 
C     0.3752909    2.4588550    0.7724763 
C     0.1810733    2.4445373   -0.5662626 
C     1.4630467    0.3807318    0.6393310 
C     1.2724498    0.3599724   -0.7090978 
C     0.6237575    1.3972454   -1.3083468 
O    -0.0800234    3.5341841    1.5285494 
H    -1.0226799    3.3655659    1.8623487 
H     0.4591345    1.3957253   -2.3835797 
H     1.9703145   -0.4430905    1.1362811 
H     1.1731269    1.4603396    2.4476716 
H    -0.3280602    3.2793526   -1.0368331 
C     1.7504043   -0.8155575   -1.5313480 
C     0.6179274   -1.8404831   -1.7842986 
H     2.6073237   -1.3208279   -1.0306285 
H     2.1497925   -0.4417405   -2.5030705 
C     1.0210662   -2.8383727   -2.8646671 
O     0.9874079   -2.4226084   -4.1885524 
O     1.4884102   -4.1201405   -2.5850565 
H     1.4105399   -4.3177437   -1.6000094 
N     0.2161162   -2.5000205   -0.5271464 
H    -0.2645453   -1.3150430   -2.2182645 
H     1.0612556   -2.7663306    0.0295211 
H    -0.3394605   -1.8301715    0.0593836 
