24
UFF-Energy = 0.0220827
C     1.8121405    2.9630853   -0.2893279 
C     1.1294939    3.2940952   -1.4083815 
C     0.5015279    2.3239105   -2.1244584 
C     1.8684949    1.6710234    0.1249547 
C     1.2333845    0.6969745   -0.5832997 
C     0.5559996    1.0304433   -1.7161600 
O     1.0914288    4.6358861   -1.7987393 
H     0.5728507    4.8058896   -2.6535893 
H     0.0544510    0.2646163   -2.3033824 
H     2.4372015    1.4154023    1.0189418 
H     2.3175255    3.7477906    0.2647634 
H    -0.0428947    2.5813819   -3.0263224 
C     1.3083013   -0.7487464   -0.1389855 
C     2.5099620   -1.4857974   -0.7529586 
H     0.3722935   -1.2776066   -0.4247569 
H     1.3717754   -0.8267080    0.9705047 
C     3.8398061   -0.9530397   -0.2279790 
O     4.9723015   -1.0171899   -1.0279016 
O     3.9533416   -0.4364928    1.0601347 
H     4.9330241   -0.2457545    1.2399364 
N     2.3302146   -2.9279905   -0.4842988 
H     2.5270006   -1.3009504   -1.8536973 
H     2.1503490   -3.4297104   -1.3853768 
H     3.2060203   -3.3501022   -0.0887326 
