24
UFF-Energy = 0.0948861
C     2.1589542    2.5173325    0.0836526 
C     0.9224751    2.9602910    0.4089746 
C    -0.1474994    2.1448951    0.2675362 
C     2.3288448    1.2590858   -0.3971316 
C     1.2541094    0.4378188   -0.5590875 
C     0.0137166    0.8863538   -0.2144440 
O     0.7527841    4.2514492    0.8982927 
H     0.6118429    4.9078531    0.1386286 
H    -0.8543129    0.2365696   -0.3104794 
H     3.3290232    0.9145341   -0.6470044 
H     3.0094210    3.1767069    0.2197739 
H    -1.1313638    2.5039230    0.5513461 
C     1.4442486   -0.9727083   -1.0762848 
C     1.7124788   -1.9779941    0.0702319 
H     2.2958552   -0.9905148   -1.7919711 
H     0.5450493   -1.2962853   -1.6498045 
C     0.5293061   -2.0722017    1.0215046 
O     0.7139180   -1.8982368    2.3865001 
O    -0.7478230   -2.3336326    0.5398068 
H    -0.8423055   -3.3355258    0.4539575 
N     2.0448520   -3.3132239   -0.4749693 
H     2.5635200   -1.5966600    0.6840815 
H     2.0533683   -3.3363497   -1.5223404 
H     3.0027840   -3.5961706   -0.1580561 
