24
UFF-Energy = 0.0626908
C    -0.2652290    1.8631088    0.6770084 
C    -1.1419292    2.2359027   -0.2831044 
C    -0.9207596    1.8694443   -1.5733687 
C     0.8333563    1.1323621    0.3592869 
C     1.0646117    0.7703614   -0.9328919 
C     0.1760708    1.1375517   -1.8962660 
O    -2.2609559    2.9912004    0.0820994 
H    -2.8777680    3.2232534   -0.6882359 
H     0.3360736    0.8338310   -2.9275764 
H     1.5170591    0.8299881    1.1491801 
H    -0.4569268    2.1513928    1.7052019 
H    -1.6240508    2.1570416   -2.3466516 
C     2.2775886   -0.0650455   -1.2898200 
C     1.9602500   -1.5730594   -1.3748818 
H     3.0856105    0.0988780   -0.5402317 
H     2.6946459    0.2803513   -2.2610243 
C     1.4451579   -2.1159984   -0.0390136 
O     2.3625859   -2.5748401    0.8969535 
O     0.0929072   -2.1078504    0.2952552 
H    -0.4479076   -1.7032869   -0.4551987 
N     1.0348582   -1.8191363   -2.4994425 
H     2.9178731   -2.1177768   -1.5586217 
H     1.5249851   -1.6011961   -3.4002255 
H     0.8160234   -2.8448557   -2.5450881 
