24
UFF-Energy = 0.0286297
C     1.1331609    2.3188014    0.7746245 
C    -0.0588004    2.4984725    0.1459576 
C    -0.5038362    1.5631184   -0.7235585 
C     1.8699725    1.2043772    0.5340109 
C     1.4186595    0.2576625   -0.3356343 
C     0.2293421    0.4478179   -0.9698164 
O    -0.8440447    3.6328620    0.3736318 
H    -0.4373961    4.2960994    1.0245389 
H    -0.1426470   -0.2880235   -1.6785334 
H     2.8297448    1.0788143    1.0333160 
H     1.5012539    3.0685115    1.4668629 
H    -1.4537733    1.7221121   -1.2227487 
C     2.2470087   -0.9759696   -0.6274007 
C     3.1825590   -0.7728487   -1.8343909 
H     1.5734015   -1.8387612   -0.8236119 
H     2.8569784   -1.2671958    0.2585201 
C     4.2343912    0.2910016   -1.5645408 
O     4.8479836    0.4009036   -0.3197440 
O     4.6030203    1.1628624   -2.5789118 
H     5.3320275    1.7751160   -2.2349358 
N     3.8006170   -2.0688166   -2.1623574 
H     2.5951445   -0.3992292   -2.7071955 
H     3.0861821   -2.6848164   -2.6158151 
H     4.5501103   -1.9189388   -2.8817646 
