24
UFF-Energy = 0.0653953
C     1.0738652    2.5820800   -1.2842581 
C    -0.1490301    2.9079102   -0.8060487 
C    -0.8162411    2.0437039   -0.0081910 
C     1.6323729    1.3853158   -0.9703416 
C     0.9667758    0.5064995   -0.1689509 
C    -0.2645076    0.8452491    0.3097713 
O    -0.7182012    4.1351419   -1.1285068 
H    -1.2576540    4.0639745   -1.9844656 
H    -0.8156705    0.1588756    0.9473244 
H     2.6105522    1.1306776   -1.3709145 
H     1.5992978    3.2869467   -1.9196703 
H    -1.7942483    2.3181391    0.3730975 
C     1.5838323   -0.8380627    0.1688789 
C     1.3147620   -1.9041024   -0.9128248 
H     1.2038822   -1.1993591    1.1508202 
H     2.6828892   -0.7196291    0.2895033 
C    -0.1744227   -2.2332980   -1.0388072 
O    -0.7248439   -2.6293014   -2.2538010 
O    -0.9784673   -2.2572655    0.0967720 
H    -1.9079463   -2.5610972   -0.1669763 
N     1.9573013   -1.4646214   -2.1725978 
H     1.7780728   -2.8575412   -0.5687333 
H     2.7842384   -2.0737856   -2.3758961 
H     1.3134019   -1.5666104   -2.9939092 
