24
UFF-Energy = 0.0746592
C     1.0045553    2.4521019    0.1416519 
C    -0.2541346    2.3345253    0.6231141 
C    -0.8618305    1.1262819    0.6413098 
C     1.6583621    1.3610359   -0.3317381 
C     1.0514040    0.1412546   -0.3248608 
C    -0.2141508    0.0308085    0.1692259 
O    -0.9215563    3.4540952    1.1089670 
H    -1.4600593    3.8975060    0.3724498 
H    -0.7115304   -0.9351844    0.1892506 
H     2.6668567    1.4751711   -0.7227432 
H     1.4829223    3.4257556    0.1375754 
H    -1.8674577    1.0449468    1.0402046 
C     1.7689676   -1.0824465   -0.8583975 
C     1.2256893   -1.5290291   -2.2404769 
H     1.6516730   -1.9049380   -0.1193299 
H     2.8653775   -0.8982680   -0.9334895 
C     1.6564326   -0.6151335   -3.3961267 
O     2.3937726    0.5387029   -3.1595770 
O     1.2958108   -0.9104603   -4.7079869 
H     0.8856008   -1.8317330   -4.7559666 
N     1.6226747   -2.9266545   -2.4922297 
H     0.1130407   -1.4771050   -2.2345168 
H     2.6674850   -3.0176793   -2.4409872 
H     1.2172747   -3.5575762   -1.7598585 
