24
UFF-Energy = 0.0840637
C     1.0882214    2.5749913   -0.8766930 
C     0.0946055    2.8112190    0.0105220 
C    -0.3986894    1.7988044    0.7594164 
C     1.5987319    1.3246710   -1.0120725 
C     1.1129121    0.3001846   -0.2561209 
C     0.1075474    0.5462995    0.6309178 
O    -0.4263213    4.0942093    0.1460825 
H     0.0948729    4.6221164    0.8374400 
H    -0.3002910   -0.2549679    1.2420438 
H     2.3922954    1.1470321   -1.7341030 
H     1.4643555    3.3938138   -1.4804276 
H    -1.2045415    1.9974413    1.4581054 
C     1.6731462   -1.0995319   -0.4195795 
C     0.9334309   -1.9276990   -1.4978669 
H     1.6418644   -1.6358900    0.5567595 
H     2.7504239   -1.0395949   -0.6929927 
C    -0.5151056   -2.2553744   -1.1049917 
O    -0.7949360   -2.5658492    0.2223267 
O    -1.5555853   -2.3546596   -2.0334234 
H    -1.2588247   -2.2503844   -2.9911672 
N     1.0748616   -1.2495725   -2.7989446 
H     1.4414086   -2.9165550   -1.5577451 
H     0.9211731   -1.9373679   -3.5726383 
H     0.3567082   -0.4904470   -2.8925352 
