24
UFF-Energy = 0.0733033
C     1.1641879    2.4829619    0.0679833 
C    -0.0207565    2.3932821    0.7282368 
C    -0.6416440    1.1966539    0.8271507 
C     1.7213938    1.3769278   -0.4868341 
C     1.0958434    0.1707822   -0.3927229 
C    -0.0906031    0.0880121    0.2717895 
O    -0.6213371    3.5112149    1.3153048 
H    -0.1051950    4.3740859    1.1785566 
H    -0.6033304   -0.8657421    0.3623359 
H     2.6639033    1.4693284   -1.0219929 
H     1.6680031    3.4393985   -0.0226738 
H    -1.5864644    1.1407128    1.3566209 
C     1.7122928   -1.0717369   -1.0066275 
C     0.9685016   -1.5440835   -2.2884340 
H     1.6888213   -1.8682655   -0.2312701 
H     2.7869840   -0.9054243   -1.2476215 
C     1.2595288   -0.6559752   -3.5051534 
O     1.5748927    0.6860400   -3.3582417 
O     1.1169659   -1.1591777   -4.7912330 
H     0.1363512   -1.1668780   -5.0296490 
N     1.2514792   -2.9790919   -2.5514135 
H    -0.1275895   -1.4458010   -2.1282788 
H     1.7914190   -3.1025583   -3.4449543 
H     1.8374059   -3.4282980   -1.8104564 
