24
UFF-Energy = 0.0656455
C     1.6534628    2.4305879    0.9239838 
C     0.3366615    2.4363605    1.2632284 
C    -0.4864023    1.4862620    0.7642232 
C     2.1382650    1.4776421    0.0877442 
C     1.3086944    0.5244697   -0.4200236 
C    -0.0072257    0.5305270   -0.0719409 
O    -0.1946231    3.4029699    2.1227004 
H     0.4835487    4.0814210    2.4521151 
H    -0.6845587   -0.2272768   -0.4588624 
H     3.1960471    1.4779690   -0.1667339 
H     2.3216938    3.1861442    1.3232992 
H    -1.5340065    1.5010097    1.0453106 
C     1.8470497   -0.5511567   -1.3373372 
C     2.1794288   -1.8504653   -0.5765709 
H     2.7621670   -0.1999609   -1.8660476 
H     1.0991718   -0.7590010   -2.1363964 
C     2.4230927   -2.9871831   -1.5560522 
O     1.9161662   -4.2504835   -1.2900249 
O     3.1892040   -2.7908298   -2.6968895 
H     4.1625805   -2.8591576   -2.4368827 
N     3.3532369   -1.6227658    0.2872240 
H     1.3002546   -2.1620721    0.0371829 
H     3.0645742   -1.0304139    1.1013989 
H     3.6484677   -2.5369477    0.7099886 
