24
UFF-Energy = 0.0897965
C     1.7452401    2.6555277    0.1573304 
C     0.4193968    2.8119398    0.3768763 
C    -0.4313391    1.7870100    0.1406708 
C     2.2250098    1.4742472   -0.3083478 
C     1.3733000    0.4401497   -0.5565220 
C     0.0407262    0.6024843   -0.3248952 
O    -0.0685590    4.0235605    0.8557758 
H    -0.2937815    4.6477459    0.0889410 
H    -0.6541126   -0.2132017   -0.5081631 
H     3.2934683    1.3621975   -0.4743257 
H     2.4168892    3.4817113    0.3639047 
H    -1.4907894    1.9218600    0.3323160 
C     1.9016308   -0.8852434   -1.0583105 
C     2.0009143   -1.9416107    0.0699821 
H     2.8996063   -0.7567533   -1.5378653 
H     1.2267148   -1.2535309   -1.8637395 
C     2.2892114   -3.3191059   -0.5029817 
O     3.5216556   -3.5972380   -1.0809325 
O     1.2845791   -4.2775742   -0.5590996 
H     0.6537030   -4.0558118   -1.3144276 
N     3.0228627   -1.5538603    1.0590826 
H     1.0180059   -2.0418656    0.5861265 
H     3.9479134   -1.4107166    0.5865356 
H     2.7548289   -0.6561333    1.5260383 
