24
UFF-Energy = 0.0807026
C     1.7434350    2.5691739    0.4562316 
C     0.4695549    2.6408824    0.9063386 
C    -0.3870798    1.6184484    0.6800177 
C     2.1632746    1.4763513   -0.2311607 
C     1.3031419    0.4479356   -0.4725490 
C     0.0254765    0.5220674   -0.0060563 
O     0.0437427    3.7608516    1.6130416 
H    -0.3182358    4.4665635    0.9811286 
H    -0.6725540   -0.2940058   -0.1763644 
H     3.1934547    1.4230596   -0.5770785 
H     2.4230152    3.3899036    0.6593345 
H    -1.4022723    1.6833115    1.0575322 
C     1.7724702   -0.7823428   -1.2169133 
C     2.2557482   -1.8903173   -0.2587803 
H     2.6007349   -0.5258503   -1.9165521 
H     0.9448899   -1.1645126   -1.8566472 
C     2.4831950   -3.2057805   -0.9991040 
O     2.5207792   -3.2544058   -2.3868681 
O     2.6563550   -4.3815930   -0.2809705 
H     1.7596678   -4.7073418    0.0473532 
N     3.4829371   -1.4323797    0.4210036 
H     1.4584881   -2.1007852    0.4914888 
H     3.2176913   -0.8033368    1.2147270 
H     3.9688847   -2.2540281    0.8607211 
