24
UFF-Energy = 0.0418423
C     1.4388114    2.5151982    0.5650968 
C     0.5040955    3.0377086   -0.2731428 
C    -0.0314802    2.2625033   -1.2433446 
C     1.8297685    1.2226322    0.4300231 
C     1.2833223    0.4385310   -0.5402570 
C     0.3548506    0.9690618   -1.3820981 
O     0.0790410    4.3656355   -0.1611578 
H     0.5288471    4.8815924    0.5871860 
H    -0.0765048    0.3648966   -2.1760447 
H     2.5839517    0.8210758    1.1024572 
H     1.8778654    3.1304082    1.3429457 
H    -0.7702554    2.6929665   -1.9103035 
C     1.7344770   -0.9958680   -0.7061127 
C     2.9492273   -1.0999089   -1.6489217 
H     0.9009775   -1.6211658   -1.0975948 
H     1.9920576   -1.4202181    0.2916074 
C     3.5746580   -2.4843029   -1.5713343 
O     4.4420221   -2.7908434   -0.5307917 
O     3.2536011   -3.4657624   -2.5007177 
H     3.7520833   -4.3145959   -2.2642683 
N     2.5388814   -0.7366903   -3.0190482 
H     3.7388258   -0.3935934   -1.3003195 
H     3.3727082   -0.8012487   -3.6509060 
H     1.8690377   -1.4600252   -3.3769070 
