24
UFF-Energy = 0.0665533
C     0.8894227    2.3759177   -1.9905922 
C    -0.3311235    2.7424142   -1.5165711 
C    -0.8737041    2.0690340   -0.4770814 
C     1.5612366    1.3444949   -1.4195188 
C     1.0228236    0.6744464   -0.3638166 
C    -0.2047507    1.0384618    0.0998267 
O    -1.0480727    3.8048369   -2.0780941 
H    -0.5877795    4.2380534   -2.8711302 
H    -0.6668285    0.4948996    0.9206053 
H     2.5268550    1.0494908   -1.8213111 
H     1.3281489    2.9017519   -2.8312655 
H    -1.8549749    2.3619644   -0.1206138 
C     1.7637329   -0.4915137    0.2609271 
C     1.3851605   -1.8428487   -0.3842091 
H     1.5647852   -0.5191398    1.3547912 
H     2.8604482   -0.3340474    0.1587935 
C    -0.1083066   -2.1492586   -0.2216128 
O    -0.9653912   -2.1077589   -1.3140777 
O    -0.6448366   -2.4506885    1.0314046 
H     0.0636462   -2.4960010    1.7469174 
N     1.8252982   -1.8342411   -1.7917098 
H     1.9167037   -2.6588599    0.1576982 
H     2.8640550   -1.9524537   -1.8366882 
H     1.4054053   -2.6466996   -2.3057019 
