24
UFF-Energy = 0.0639078
C     1.9464148    2.5482235   -0.1171264 
C     0.7232995    2.8969803    0.3415620 
C    -0.2678106    1.9676081    0.3862669 
C     2.1868619    1.2811881   -0.5398211 
C     1.1946992    0.3481435   -0.5080374 
C    -0.0326855    0.6984576   -0.0334042 
O     0.5126260    4.2145395    0.7601518 
H    -0.4197866    4.3938205    1.1159168 
H    -0.8287168   -0.0397520    0.0234660 
H     3.1828762    1.0141437   -0.8856402 
H     2.7330874    3.2950608   -0.1325546 
H    -1.2480895    2.2366199    0.7630982 
C     1.4626104   -1.0746052   -0.9609292 
C     1.9873911   -1.9671707    0.1787324 
H     2.1886402   -1.0737129   -1.8040416 
H     0.5271181   -1.5227174   -1.3630666 
C     3.3489828   -1.4732261    0.6889287 
O     3.4273262   -0.6379752    1.7972543 
O     4.5259176   -1.7710158    0.0007058 
H     4.3650321   -2.3815233   -0.7864346 
N     0.9453930   -2.0623277    1.2235544 
H     2.1645158   -2.9822108   -0.2458637 
H     0.5477879   -3.0304535    1.2379476 
H     1.3423287   -1.8918717    2.1796688 
