24
UFF-Energy = 0.0891567
C     1.3159153    2.4908501    0.5432802 
C     0.1094457    2.7472892   -0.0124054 
C    -0.5022212    1.8062130   -0.7669127 
C     1.9177846    1.2903857    0.3422951 
C     1.3089045    0.3362390   -0.4158957 
C     0.0936387    0.6040975   -0.9724955 
O    -0.5041968    3.9777710    0.1964755 
H    -0.2032983    4.6484475   -0.5020527 
H    -0.4003486   -0.1340623   -1.5994744 
H     2.8938680    1.0966084    0.7802115 
H     1.7919236    3.2549043    1.1485067 
H    -1.4683875    2.0243548   -1.2096479 
C     1.9839690   -1.0020066   -0.6464380 
C     3.0462251   -0.9607698   -1.7613705 
H     1.2247064   -1.7790142   -0.8891580 
H     2.4699432   -1.3337086    0.2971289 
C     2.4276187   -0.6827152   -3.1327589 
O     2.3874428   -1.6934850   -4.0821334 
O     1.8573202    0.5458307   -3.4436474 
H     2.5851362    1.1958850   -3.6936452 
N     4.1254579   -0.0242410   -1.3709609 
H     3.4656775   -1.9923643   -1.8430317 
H     5.0282212   -0.5490970   -1.2822149 
H     4.2857979    0.7063296   -2.1031809 
