24
UFF-Energy = 0.0782193
C     1.7495861    2.6713395    0.0445522 
C     0.4256975    2.8300421    0.3111052 
C    -0.4196069    1.7880215    0.1425834 
C     2.2194548    1.4742586   -0.3889209 
C     1.3683614    0.4252571   -0.5620941 
C     0.0445769    0.5883546   -0.2903267 
O    -0.0914108    4.0494886    0.7595702 
H     0.6035218    4.7815534    0.8599068 
H    -0.6505554   -0.2374404   -0.4181168 
H     3.2814640    1.3624694   -0.5930245 
H     2.4355455    3.5008424    0.1785697 
H    -1.4729406    1.9284346    0.3601401 
C     1.8882251   -0.9160843   -1.0297132 
C     2.0368145   -1.9255121    0.1355015 
H     2.8669103   -0.8009278   -1.5507134 
H     1.1873475   -1.3204693   -1.7947159 
C     2.3126462   -3.3237274   -0.3917907 
O     3.5259351   -3.6199316   -1.0004161 
O     1.3119246   -4.2877415   -0.3743778 
H     0.6534184   -4.0984654   -1.1148384 
N     3.0923754   -1.4925507    1.0689940 
H     1.0746451   -2.0099510    0.6918649 
H     3.9988879   -1.3672612    0.5569859 
H     2.8378866   -0.5763710    1.5065319 
