24
UFF-Energy = 0.0501351
C     1.5539389    2.6978226   -0.2450523 
C     0.2102536    2.7606301   -0.0471551 
C    -0.5300139    1.6316359   -0.1235100 
C     2.1487118    1.5087541   -0.5176166 
C     1.4043785    0.3703840   -0.5941120 
C     0.0589942    0.4396507   -0.3957195 
O    -0.4339176    3.9696168    0.2342424 
H     0.1883564    4.7692165    0.2803820 
H    -0.5541387   -0.4566122   -0.4532613 
H     3.2239160    1.4770162   -0.6733173 
H     2.1555786    3.5983740   -0.1856674 
H    -1.6008786    1.6959979    0.0368537 
C     2.0588117   -0.9623642   -0.8911355 
C     2.1570398   -1.8595202    0.3678675 
H     3.0745141   -0.8278130   -1.3275555 
H     1.4596045   -1.4795134   -1.6758227 
C     2.4785563   -3.2890887   -0.0343140 
O     3.7613915   -3.6414894   -0.4384924 
O     1.4677408   -4.2390402   -0.0739606 
H     1.8632278   -5.1229418   -0.3697248 
N     3.1143191   -1.3069982    1.3598681 
H     1.1544228   -1.9294431    0.8500959 
H     3.9140088   -1.9661130    1.5280620 
H     3.5511446   -0.4128533    1.0399398 
