24
UFF-Energy = 0.0507951
C     2.6626445    2.1075151    0.7699162 
C     1.5020068    2.7001402    1.1590076 
C     0.3191976    2.1793908    0.7606505 
C     2.6337792    1.0015913   -0.0162386 
C     1.4437594    0.4824373   -0.4260173 
C     0.2844518    1.0747036   -0.0260930 
O     1.4964697    3.8415101    1.9669476 
H     2.4207248    4.1638914    2.2328746 
H    -0.6768745    0.6637541   -0.3265919 
H     3.5690755    0.5334290   -0.3127578 
H     3.6161792    2.5145545    1.0891061 
H    -0.5997424    2.6561857    1.0839345 
C     1.4109872   -0.7659603   -1.2814066 
C     1.4922113   -2.0505374   -0.4238515 
H     2.2612356   -0.7413825   -1.9982183 
H     0.4845693   -0.7867881   -1.9000059 
C     0.3145397   -2.1747836    0.5316423 
O    -0.9925352   -2.1294628    0.0519843 
O     0.5312252   -2.2985925    1.8986573 
H    -0.3625328   -2.3833988    2.3636970 
N     1.5891089   -3.2296024   -1.3001446 
H     2.4056004   -2.0079473    0.2129604 
H     0.7484947   -3.2779201   -1.9255073 
H     2.4365702   -3.1519284   -1.9097684 
