24
UFF-Energy = 0.0510329
C     0.8435804    2.3767026    0.8746210 
C    -0.4303161    1.9706869    1.1204094 
C    -0.8811174    0.8176473    0.5764420 
C     1.6575616    1.6294501    0.0862342 
C     1.2055724    0.4659793   -0.4604230 
C    -0.0706976    0.0641179   -0.2093613 
O    -1.2943962    2.7155464    1.9286284 
H    -0.8821052    3.5631603    2.3038485 
H    -0.4510048   -0.8620784   -0.6336886 
H     2.6810809    1.9595559   -0.0898766 
H     1.2159563    3.2970229    1.3122462 
H    -1.8998630    0.5059142    0.7808933 
C     2.1161898   -0.3771958   -1.3304116 
C     3.0599851   -1.3032207   -0.5316379 
H     2.7261955    0.2913838   -1.9802561 
H     1.5118724   -1.0011193   -2.0264480 
C     4.0162225   -0.5319789    0.3799487 
O     5.2411838   -0.1359029   -0.1330541 
O     3.6863943   -0.1406401    1.6769582 
H     2.7421527   -0.3811370    1.9264240 
N     2.2914817   -2.3661681    0.1466028 
H     3.7300515   -1.7940929   -1.2770563 
H     2.9463080   -2.9591980    0.7132891 
H     1.5968671   -1.9609014    0.8140257 
