24
UFF-Energy = 0.0884077
C     2.0170413    2.2401559   -0.4881635 
C     0.8485334    2.9203729   -0.5366588 
C    -0.3260425    2.2520777   -0.4819989 
C     2.0152384    0.8881310   -0.3673704 
C     0.8367850    0.2088563   -0.2926776 
C    -0.3363774    0.9005357   -0.3605250 
O     0.8547669    4.3075250   -0.6514562 
H     0.8709886    4.7438869    0.2633921 
H    -1.2888050    0.3759440   -0.3344981 
H     2.9610908    0.3531448   -0.3483060 
H     2.9507980    2.7870033   -0.5583495 
H    -1.2558337    2.8065254   -0.5477574 
C     0.8314713   -1.3033196   -0.1773522 
C     0.8355176   -2.0010934   -1.5535980 
H    -0.0533969   -1.6332258    0.4104782 
H     1.7214552   -1.6355982    0.4004463 
C    -0.3922383   -1.6095332   -2.3868518 
O    -0.2644634   -0.7610862   -3.4805577 
O    -1.6658313   -2.0688725   -2.0435675 
H    -1.6446262   -2.7077996   -1.2627086 
N     2.1144477   -1.7132765   -2.2289970 
H     0.7558149   -3.1003082   -1.3896253 
H     2.8682136   -2.3108836   -1.8168932 
H     2.0506548   -1.9745131   -3.2432803 
