24
UFF-Energy = 0.0668192
C     1.4423345    2.7070979    0.0574108 
C     0.2892302    2.9575972   -0.6032366 
C    -0.3751899    1.9363524   -1.2067307 
C     1.9379623    1.4455117    0.1213526 
C     1.2749939    0.4184485   -0.4779084 
C     0.1161317    0.6722386   -1.1463044 
O    -0.1884835    4.2708020   -0.6477452 
H    -1.0593016    4.3819226   -1.1555574 
H    -0.4240595   -0.1343305   -1.6353113 
H     2.8675106    1.2634833    0.6553780 
H     1.9640374    3.5303930    0.5341254 
H    -1.3000391    2.1302632   -1.7388185 
C     1.8381487   -0.9845875   -0.4223036 
C     2.9907054   -1.1870461   -1.4350848 
H     1.0379049   -1.7381087   -0.5972715 
H     2.2114266   -1.1785674    0.6105412 
C     3.7162561   -2.5060555   -1.1903864 
O     4.9761583   -2.4805691   -0.6054633 
O     3.1285751   -3.7420271   -1.4608741 
H     2.2235092   -3.6391506   -1.8899735 
N     2.4999577   -1.0767908   -2.8227469 
H     3.7713506   -0.4074700   -1.2628555 
H     1.6085342   -1.6105524   -2.9497897 
H     2.2903602   -0.0739077   -3.0409816 
