24
UFF-Energy = 0.0852686
C     0.4704297    2.4874770   -0.1917270 
C    -0.3649042    2.3910211   -1.2629998 
C    -0.3552208    1.2696052   -2.0189751 
C     1.3099985    1.4525801    0.1183904 
C     1.3065031    0.3266830   -0.6429007 
C     0.4771442    0.2420261   -1.7169929 
O    -1.2363938    3.4288185   -1.6089880 
H    -1.1959351    4.2414640   -1.0037031 
H     0.4733215   -0.6476933   -2.3417250 
H     2.0284356    1.5063417    0.9786953 
H     0.4579379    3.4014924    0.4004849 
H    -1.0217513    1.2063366   -2.8720672 
C     2.2495924   -0.8031727   -0.2986419 
C     3.7118717   -0.4981487   -0.7411774 
H     1.9001417   -1.7606410   -0.7501157 
H     2.1971340   -0.9948894    0.8017311 
C     4.6884999   -0.5524283    0.4493551 
O     5.8509814   -1.3268060    0.3788542 
O     4.4323111    0.2269145    1.6015673 
H     3.5681854    0.7924901    1.5924671 
N     4.0741891   -1.4262872   -1.8310612 
H     3.8010634    0.5521937   -1.1066231 
H     3.5074067   -1.1957527   -2.6820236 
H     5.0766378   -1.2831367   -2.1084291 
