24
UFF-Energy = 0.0768609
C     1.6662410    2.3506262    0.7472938 
C     0.8613481    3.0819134   -0.0576507 
C     0.2586716    2.5010269   -1.1204442 
C     1.8648975    1.0315218    0.4966488 
C     1.2549145    0.4378508   -0.5667516 
C     0.4527328    1.1824473   -1.3780812 
O     0.6613970    4.4342906    0.2008446 
H    -0.1301373    4.5670150    0.8206834 
H    -0.0346092    0.7314109   -2.2386321 
H     2.5175057    0.4566063    1.1494995 
H     2.1531446    2.8323253    1.5882859 
H    -0.3748025    3.1017771   -1.7645846 
C     1.4933130   -1.0268679   -0.8576759 
C     2.8685209   -1.2749017   -1.5222510 
H     0.6835286   -1.4429572   -1.4989220 
H     1.4382708   -1.5938861    0.1008069 
C     3.1554272   -2.7634074   -1.6121109 
O     3.8275407   -3.4008765   -0.5787896 
O     2.6736590   -3.5195112   -2.6721229 
H     3.3261556   -3.4357485   -3.4376057 
N     2.9377417   -0.6356300   -2.8485246 
H     3.6727267   -0.8543983   -0.8749471 
H     2.0970340   -0.8963019   -3.4172141 
H     2.9304331    0.4055592   -2.7350469 
