24
UFF-Energy = 0.0701507
C     2.2619135    2.5065117   -0.2659854 
C     1.0737540    3.1407106   -0.0855142 
C    -0.0765911    2.4333884   -0.1456654 
C     2.2924931    1.1707386   -0.5059721 
C     1.1364753    0.4520467   -0.5571734 
C    -0.0516516    1.0969809   -0.3817130 
O     1.0058501    4.5158953    0.1584909 
H     1.9104276    4.9712707    0.2154612 
H    -0.9901974    0.5509477   -0.4269095 
H     3.2506897    0.6778771   -0.6442906 
H     3.1903286    3.0652581   -0.2158958 
H    -1.0180337    2.9527135   -0.0011955 
C     1.1622828   -1.0426944   -0.8333069 
C     1.5934730   -1.9234435    0.3739013 
H     1.8414360   -1.2410193   -1.6929229 
H     0.1578434   -1.3837019   -1.1692129 
C     3.0790219   -1.8101903    0.6940300 
O     3.9548099   -2.7883786    0.2339188 
O     3.5988938   -0.7083388    1.3686582 
H     4.5835432   -0.8603562    1.5456948 
N     0.7549188   -1.6951186    1.5713745 
H     1.4675780   -2.9825451    0.0472900 
H     0.0339348   -0.9533499    1.4290001 
H     0.2443131   -2.5730077    1.8242979 
