24
UFF-Energy = 0.0676202
C     0.7189444    2.0351738    0.7610988 
C     0.5559760    2.9474977   -0.2340470 
C     0.8657108    2.6109840   -1.5066213 
C     1.1921459    0.7949179    0.4785334 
C     1.5123133    0.4577623   -0.8010996 
C     1.3385446    1.3720184   -1.7950146 
O     0.0701680    4.2336973    0.0216768 
H    -0.1372920    4.4098673    0.9987887 
H     1.5755841    1.1176050   -2.8248992 
H     1.3048165    0.0697262    1.2813247 
H     0.4671361    2.2934378    1.7839900 
H     0.7271709    3.3468701   -2.2911970 
C     2.0184672   -0.9321278   -1.1220514 
C     0.8625889   -1.8982931   -1.4437737 
H     2.6042466   -1.3358310   -0.2648363 
H     2.7255765   -0.8821048   -1.9808134 
C     1.3768089   -3.2118518   -2.0438564 
O     2.6866331   -3.6203247   -1.8184705 
O     0.5341956   -4.0430117   -2.7811292 
H    -0.4020519   -3.6706481   -2.8438756 
N     0.0723004   -2.1067385   -0.2122323 
H     0.2286322   -1.4265586   -2.2309698 
H    -0.9067820   -1.7662851   -0.3611827 
H     0.0069309   -3.1221627    0.0451723 
