24
UFF-Energy = 0.0769262
C     1.6506510    2.6595622   -0.5731611 
C     0.5454312    2.8917053    0.1720119 
C    -0.2529460    1.8625168    0.5373797 
C     1.9664046    1.3942046   -0.9495013 
C     1.1680753    0.3526422   -0.5837650 
C     0.0559181    0.5942586    0.1647205 
O     0.2253542    4.1899520    0.5567094 
H     0.6641374    4.4208008    1.4411994 
H    -0.5947481   -0.2234139    0.4653034 
H     2.8590821    1.2232802   -1.5458036 
H     2.2754924    3.4955670   -0.8680182 
H    -1.1418396    2.0637060    1.1261052 
C     1.5193412   -1.0616535   -0.9876870 
C     2.1731979   -1.8579173    0.1698138 
H     2.1934668   -1.0661551   -1.8746834 
H     0.5919559   -1.5802132   -1.3237424 
C     2.2703346   -3.3381592   -0.1571035 
O     2.5426231   -3.7626510   -1.4513617 
O     2.1490781   -4.2833811    0.8502753 
H     3.0358169   -4.3453742    1.3291623 
N     3.5007634   -1.3102326    0.4979112 
H     1.5200290   -1.8022070    1.0711146 
H     4.0947904   -1.2786517   -0.3655825 
H     3.4027060   -0.3290879    0.8497542 
