24
UFF-Energy = 0.045244
C     1.1533582    2.6855785    0.5482092 
C    -0.1340391    2.6426649    0.1371248 
C    -0.5656584    1.5931761   -0.6112054 
C     2.0157312    1.6907468    0.2143733 
C     1.5914409    0.6404426   -0.5413611 
C     0.2920572    0.5963466   -0.9474762 
O    -0.9895286    3.6877297    0.4981058 
H    -1.9417835    3.5774411    0.1676265 
H    -0.0691354   -0.2435739   -1.5358506 
H     3.0455184    1.7315008    0.5650668 
H     1.4812152    3.5249532    1.1533781 
H    -1.5983979    1.5472635   -0.9382724 
C     2.5466192   -0.4793071   -0.9093581 
C     2.5164664   -1.6437129    0.1014208 
H     3.5851465   -0.0874409   -0.9937073 
H     2.2865056   -0.8736470   -1.9159495 
C     3.0464748   -1.2348118    1.4777960 
O     2.6620334   -1.9247109    2.6224570 
O     4.0208420   -0.2461308    1.5914793 
H     4.3085398   -0.1864360    2.5617184 
N     1.1509230   -2.2166009    0.1186306 
H     3.2407450   -2.4126647   -0.2525091 
H     1.1633114   -3.1586739   -0.3374430 
H     0.8122338   -2.3739404    1.0987221 
