24
UFF-Energy = 0.0494651
C     1.6905357    2.7270529    0.4171743 
C     0.6552383    3.1615599   -0.3362049 
C    -0.0354410    2.2766696   -1.1034006 
C     2.0425344    1.4174076    0.4117762 
C     1.3530315    0.5251589   -0.3523866 
C     0.3108111    0.9644166   -1.1111123 
O     0.3225228    4.5197495   -0.3030649 
H    -0.4521285    4.7721217   -0.9069274 
H    -0.2470212    0.2687666   -1.7340040 
H     2.8827681    1.0902442    1.0185738 
H     2.2372206    3.4411993    1.0227013 
H    -0.8637834    2.6173664   -1.7143461 
C     1.7517104   -0.9374352   -0.3734976 
C     2.7209173   -1.2900889   -1.5230649 
H     0.8385783   -1.5697094   -0.4545827 
H     2.2301574   -1.2120912    0.5930741 
C     2.1217688   -1.0197713   -2.8956335 
O     2.5319216    0.0667015   -3.6612348 
O     1.1329021   -1.8610947   -3.3879544 
H     0.8554567   -1.5377320   -4.3062257 
N     4.0184834   -0.6219479   -1.3029440 
H     2.8758803   -2.3936835   -1.5007098 
H     4.6969742   -0.9415684   -2.0353930 
H     3.9084952    0.4084518   -1.4643148 
