24
UFF-Energy = 0.0663132
C     1.0197229    2.8798265   -0.2607726 
C    -0.1600990    2.6947931   -0.9114233 
C    -0.5512784    1.4431009   -1.2437214 
C     1.7992437    1.8139965    0.0533371 
C     1.4052935    0.5544258   -0.2791403 
C     0.2240205    0.3742511   -0.9303254 
O    -0.9853793    3.7715034   -1.2516623 
H    -0.6271217    4.6763368   -0.9660599 
H    -0.1031073   -0.6242428   -1.2138687 
H     2.7446785    1.9698285    0.5693422 
H     1.3417755    3.8801257    0.0082240 
H    -1.4921886    1.3086419   -1.7665886 
C     2.2775534   -0.6332590    0.0642065 
C     3.3354510   -0.9651627   -1.0090374 
H     1.6413049   -1.5308177    0.2407552 
H     2.8007740   -0.4475110    1.0293954 
C     2.7356337   -1.4170532   -2.3484271 
O     2.7021126   -2.7745601   -2.6389635 
O     2.1939992   -0.5300147   -3.2793605 
H     2.1924592    0.4162908   -2.9403514 
N     4.3128787    0.1364286   -1.1136354 
H     3.8811825   -1.8647142   -0.6352653 
H     5.1284788   -0.1862453   -1.6886783 
H     3.9071917    0.9583083   -1.6154372 
