24
UFF-Energy = 0.0654482
C     1.4065324    2.7964143    0.2076121 
C     0.5123565    3.1260982   -0.7526952 
C     0.0043425    2.1686803   -1.5621611 
C     1.7880378    1.5032563    0.3691594 
C     1.2709004    0.5314056   -0.4331297 
C     0.3799340    0.8735663   -1.4057645 
O     0.1232032    4.4517735   -0.9138765 
H    -0.6733366    4.6654858   -0.3242403 
H    -0.0298059    0.1154321   -2.0700514 
H     2.5188637    1.2482371    1.1333956 
H     1.8186059    3.5786238    0.8362924 
H    -0.6985045    2.4484250   -2.3399554 
C     1.7064519   -0.9098333   -0.2643313 
C     2.9389643   -1.2693443   -1.1169528 
H     0.8651848   -1.5910371   -0.5262100 
H     1.9415213   -1.1123792    0.8038164 
C     2.6616937   -1.1389257   -2.6134618 
O     1.6757757   -1.9226693   -3.2024622 
O     3.3679153   -0.2370716   -3.4013912 
H     3.0329015   -0.3042795   -4.3536693 
N     4.1011478   -0.4857008   -0.6524994 
H     3.1497143   -2.3512115   -0.9536272 
H     4.9674509   -0.9104114   -1.0610950 
H     4.0549142    0.4748217   -1.0751475 
