24
UFF-Energy = 1.29539
C     1.5282283    2.6321452    0.2581624 
C     0.2979554    2.5403195    0.8154430 
C    -0.3373488    1.3432172    0.8627504 
C     2.1114260    1.5230701   -0.2568177 
C     1.4835153    0.3257544   -0.2336129 
C     0.2539285    0.2333494    0.3439646 
O    -0.3114198    3.6718269    1.3478267 
H    -0.8635286    4.1475118    0.6427327 
H    -0.2603641   -0.7221822    0.4028250 
H     3.1598779    1.4781594   -0.7888681 
H     2.0381077    3.5889049    0.2301952 
H    -1.3157948    1.2804559    1.3275557 
C     2.2123702   -0.8974622   -0.7693513 
C     2.9514875   -0.6597576   -2.1276096 
H     1.4831150   -1.7279457   -0.8935567 
H     2.9495592   -1.2268359   -0.0029398 
C     4.1887808    0.2753254   -2.0243080 
O     4.1392917    1.4515080   -1.2788897 
O     5.3563261    0.0421251   -2.7415035 
H     5.2622001   -0.7178731   -3.3962502 
N     3.3001290   -1.9704214   -2.7092349 
H     2.2617320   -0.1304505   -2.8267157 
H     3.8972483   -2.5106185   -2.0355293 
H     2.4334215   -2.5297921   -2.8909065 
