24
UFF-Energy = 0.0762055
C     1.4857781    2.7081735   -0.0104638 
C     0.1645938    2.7286212    0.2804921 
C    -0.5754146    1.6040855    0.1468936 
C     2.0709999    1.5632724   -0.4453410 
C     1.3303441    0.4289550   -0.5908328 
C     0.0025503    0.4551398   -0.2873009 
O    -0.4314710    3.9036524    0.7274199 
H    -0.7651748    4.4561248   -0.0547619 
H    -0.6031171   -0.4423280   -0.3874618 
H     3.1347136    1.5604020   -0.6685174 
H     2.0692277    3.6137722    0.1146788 
H    -1.6313028    1.6308826    0.3951506 
C     1.9778341   -0.8564796   -1.0573138 
C     2.2692344   -1.8289685    0.1151841 
H     2.9187835   -0.6471472   -1.6137632 
H     1.2993177   -1.3428209   -1.7957277 
C     2.7142296   -3.2094204   -0.3815200 
O     2.3436888   -3.6411846   -1.6498176 
O     3.4047951   -4.0958124    0.4419710 
H     3.6143082   -3.6661436    1.3313049 
N     3.2587032   -1.2337880    1.0367542 
H     1.3216266   -2.0267992    0.6684690 
H     4.0984942   -0.8974367    0.5058147 
H     2.8416621   -0.4034345    1.5229919 
