24
UFF-Energy = 0.0554002
C     1.5807653    2.6848431   -0.1009844 
C     0.2793348    2.8195964    0.2423810 
C    -0.5428114    1.7461264    0.2124562 
C     2.0626984    1.4760924   -0.4890532 
C     1.2387603    0.3911283   -0.5325571 
C    -0.0679463    0.5343364   -0.1728586 
O    -0.2118967    4.0610847    0.6338613 
H    -0.5436561    4.5836321   -0.1688679 
H    -0.7362796   -0.3223852   -0.1802472 
H     3.1135667    1.3810895   -0.7532202 
H     2.2323326    3.5507581   -0.0532009 
H    -1.5801514    1.8627976    0.5073667 
C     1.7725904   -0.9655990   -0.9531546 
C     2.2288049   -1.8264609    0.2456301 
H     2.6206618   -0.8386067   -1.6632443 
H     0.9863023   -1.5147756   -1.5152079 
C     3.4201302   -1.2126667    0.9795801 
O     4.4132770   -0.5446214    0.2693011 
O     3.6056191   -1.4282624    2.3399076 
H     4.4594491   -0.9679786    2.6280822 
N     1.0691924   -2.0754292    1.1249741 
H     2.6115352   -2.7959549   -0.1473627 
H     0.4659650   -2.8140470    0.6953792 
H     1.3983751   -2.4609384    2.0446595 
