24
UFF-Energy = 0.0642698
C     1.1397357    1.7640225    0.8971143 
C     0.5488182    2.7533197    0.1890143 
C     0.2941519    2.5722731   -1.1341425 
C     1.4847130    0.5980979    0.2944228 
C     1.2392891    0.4141840   -1.0320352 
C     0.6360830    1.4070657   -1.7417946 
O     0.2142250    3.9436791    0.8429592 
H    -0.2455324    4.6291263    0.2544868 
H     0.4150507    1.2642014   -2.7970276 
H     1.9470674   -0.1891497    0.8855271 
H     1.3277272    1.9140243    1.9549594 
H    -0.1869758    3.3584594   -1.7049271 
C     1.6088761   -0.8918867   -1.7059016 
C     0.4919817   -1.9540496   -1.6197484 
H     2.5445518   -1.2901431   -1.2541515 
H     1.8455143   -0.7110324   -2.7781578 
C     0.1530299   -2.3315642   -0.1729472 
O    -1.0278640   -1.8879756    0.4095370 
O     1.0303855   -3.0961303    0.5960321 
H     1.8480851   -3.3759984    0.0765890 
N    -0.6754162   -1.4996455   -2.3987572 
H     0.8795642   -2.8855246   -2.0919957 
H    -1.3610446   -2.2899619   -2.4684803 
H    -1.1817947   -0.7548923   -1.8604802 
