24
UFF-Energy = 0.0994572
C     1.6751772    2.5432100    0.6128143 
C     0.3539856    2.8285812    0.5726691 
C    -0.5079645    1.9602897   -0.0030893 
C     2.1417179    1.3922686    0.0652776 
C     1.2808460    0.5077558   -0.5135730 
C    -0.0499914    0.8044482   -0.5478658 
O    -0.1200656    4.0141038    1.1261813 
H    -0.1084170    4.7605245    0.4403348 
H    -0.7581535    0.1204307   -1.0076600 
H     3.2064409    1.1826826    0.1056855 
H     2.3528844    3.2409394    1.0922390 
H    -1.5667176    2.1967987   -0.0202017 
C     1.7942125   -0.7828825   -1.1294338 
C     2.1547668   -1.8886157   -0.0968235 
H     2.6849645   -0.5534865   -1.7557083 
H     1.0389403   -1.1952662   -1.8351752 
C     3.3681384   -1.5347844    0.7500357 
O     3.2444063   -0.7981784    1.9213060 
O     4.6411440   -1.8652603    0.2998561 
H     4.9236953   -1.2101175   -0.4127564 
N     0.9968918   -2.2665887    0.7423276 
H     2.4905920   -2.7806922   -0.6769401 
H     0.1337393   -1.7222329    0.5176620 
H     0.7665174   -3.2786548    0.6070002 
