24
UFF-Energy = 0.0765027
C     2.7260783    2.1151802    0.4260067 
C     1.6938174    2.7819045    1.0086053 
C     0.4307933    2.3233282    0.8554943 
C     2.4895254    0.9974300   -0.3065110 
C     1.2173796    0.5389424   -0.4678160 
C     0.1885259    1.2079064    0.1224203 
O     1.9034746    3.9378338    1.7674428 
H     2.8770064    4.2111480    1.8451897 
H    -0.8338624    0.8522155    0.0177515 
H     3.3248970    0.4725942   -0.7627104 
H     3.7428284    2.4735825    0.5460727 
H    -0.3843901    2.8583074    1.3305036 
C     0.9584150   -0.7200871   -1.2691761 
C     1.1931114   -2.0008727   -0.4283224 
H     1.6307562   -0.7247736   -2.1553921 
H    -0.0828041   -0.7241496   -1.6671866 
C     0.2275702   -2.1117233    0.7440032 
O    -1.0906366   -1.6833233    0.6347306 
O     0.6383012   -2.7162888    1.9236889 
H     0.6202268   -3.7158279    1.7851777 
N     1.1038360   -3.2075917   -1.2782314 
H     2.2088780   -1.9363379    0.0286269 
H     1.0310578   -2.9793251   -2.2979977 
H     1.9671633   -3.7888132   -1.1613235 
