24
UFF-Energy = 0.0939254
C     1.2317464    2.4722705   -1.6154561 
C    -0.0328186    2.8721432   -1.3481473 
C    -0.8382447    2.1029321   -0.5804079 
C     1.6943459    1.2970638   -1.1190580 
C     0.8901786    0.5181316   -0.3433650 
C    -0.3833401    0.9258421   -0.0811001 
O    -0.5051799    4.0767156   -1.8599070 
H    -0.9416061    3.9303742   -2.7642800 
H    -1.0476844    0.3098624    0.5182995 
H     2.7038126    0.9734764   -1.3640749 
H     1.8650269    3.0960624   -2.2367533 
H    -1.8500207    2.4353619   -0.3756445 
C     1.3954351   -0.8157648    0.1699525 
C     1.2820068   -1.9894759   -0.8483996 
H     0.8605491   -1.0877026    1.1060699 
H     2.4575763   -0.6853717    0.4804188 
C     0.6088205   -1.6087054   -2.1786034 
O     1.3808550   -1.2334609   -3.2726597 
O    -0.7822903   -1.5942086   -2.3050411 
H    -1.2461347   -1.8561466   -1.4483959 
N     2.6259440   -2.5642568   -1.0468595 
H     0.6301681   -2.7753783   -0.4015842 
H     2.8865700   -3.1357311   -0.2088949 
H     2.6174362   -3.2250344   -1.8622347 
