24
UFF-Energy = 0.0757941
C     0.7981223    1.9864027    0.9912210 
C    -0.1559350    2.4450963    0.1487906 
C    -0.3968112    1.8011033   -1.0165586 
C     1.5085114    0.8738385    0.6757185 
C     1.2635032    0.2135087   -0.4906314 
C     0.3110534    0.6887961   -1.3401675 
O    -0.8808333    3.5867036    0.4743493 
H    -1.7137636    3.3449712    0.9999174 
H     0.1115340    0.1844673   -2.2825690 
H     2.2806377    0.5216253    1.3575619 
H     0.9925607    2.5222534    1.9142185 
H    -1.1551736    2.1878392   -1.6893861 
C     2.0758107   -1.0069744   -0.8619489 
C     3.3090648   -0.6402532   -1.7093084 
H     1.4420115   -1.7241128   -1.4304767 
H     2.4014804   -1.5499203    0.0552778 
C     4.2839836    0.2411673   -0.9427997 
O     4.8940544   -0.2235825    0.2144731 
O     4.5462351    1.5325069   -1.3769592 
H     3.7845019    2.1358869   -1.1011652 
N     3.9367927   -1.8885320   -2.1788509 
H     2.9832231   -0.0399902   -2.5918702 
H     4.7573915   -1.6533604   -2.7888108 
H     4.3363492   -2.4040079   -1.3560207 
