24
Energy =
C     1.7614833    2.8924490   -1.0004228 
C     0.5099538    2.9697676   -0.4746806 
C    -0.1698651    1.8340697   -0.1978653 
C     2.3253620    1.6825898   -1.2448451 
C     1.6424163    0.5378676   -0.9647013 
C     0.3888226    0.6211957   -0.4401905 
O    -0.0998254    4.2002741   -0.2099502 
H     0.4718378    5.0040206   -0.4465131 
H    -0.1751664   -0.2799604   -0.2122477 
H     3.3261363    1.6400655   -1.6671864 
H     2.3140571    3.7978214   -1.2271728 
H    -1.1678780    1.9101478    0.2200657 
C     2.2662564   -0.8160752   -1.2271412 
C     2.7049022   -1.5230617    0.0812043 
H     3.1425822   -0.7330220   -1.9105577 
H     1.5250897   -1.4479806   -1.7675695 
C     3.0429677   -2.9792936   -0.1789598 
O     2.4939811   -3.9750230    0.6211386 
O     3.8760507   -3.3412345   -1.2308871 
H     3.9999096   -4.3445333   -1.2082538 
N     3.8521471   -0.8359002    0.7110927 
H     1.8405541   -1.5476017    0.7862771 
H     4.1185965    0.0446118    0.2141066 
H     3.6021814   -0.5646051    1.6909569 
