13
UFF-Energy = 0.0407571
C    -5.3458783    1.9965863   -0.2041135 
C    -3.9416638    1.3938274   -0.0854409 
H    -6.1044634    1.1981291   -0.3407235 
H    -5.3986669    2.6966625   -1.0653938 
H    -5.5842772    2.5622240    0.7247661 
C    -2.8650463    2.4682711    0.0359492 
N    -3.9330419    0.4837805    1.0693375 
H    -3.7083425    0.8287467   -1.0186587 
H    -4.5281605   -0.3502576    0.8533960 
H    -2.9606960    0.1141830    1.2081916 
O    -1.5455630    2.1559120   -0.2717001 
O    -3.1745735    3.7548946    0.4659278 
H    -2.3225467    4.2988895    0.5045191 
