13
UFF-Energy = -0.0387971
C    -5.2880013    1.8490800   -0.3393960 
C    -3.8726453    1.3700803    0.0170663 
H    -5.9373735    0.9760224   -0.5679361 
H    -5.2678639    2.5202209   -1.2264422 
H    -5.7367394    2.4067495    0.5111445 
C    -2.9269387    2.5264875    0.3477889 
N    -3.9958448    0.3982189    1.1095652 
H    -3.4345840    0.8610259   -0.8732837 
H    -3.0988449   -0.1207250    1.2346294 
H    -4.2834811    0.8672312    2.0062373 
O    -3.1910497    3.7964868   -0.1397561 
O    -1.7435163    2.3321957    1.0475687 
H    -1.6910571    1.3695335    1.3376861 
