13
UFF-Energy = 0.0612856
C    -5.2734285    2.1290853   -0.2058324 
C    -3.9538030    1.3586003   -0.0194365 
H    -5.5474547    2.6673752    0.7278656 
H    -6.0986765    1.4361706   -0.4752577 
H    -5.1744136    2.8831796   -1.0187606 
C    -2.7676286    2.2796069    0.3029961 
N    -4.1550932    0.3223695    1.0083303 
H    -3.6776466    0.8729639   -0.9860973 
H    -4.4928057    0.7591668    1.9013573 
H    -4.8979399   -0.3497624    0.6973469 
O    -2.7869913    3.6036714   -0.1196515 
O    -1.6182188    1.7996567    0.9272360 
H    -1.7282696    0.8271042    1.1744660 
