13
UFF-Energy = 0.0389132
C    -5.1812878    2.3749699   -0.1271446 
C    -4.0175109    1.3787421   -0.1184996 
H    -5.2586578    2.8874444    0.8571423 
H    -6.1356315    1.8389388   -0.3190691 
H    -5.0349844    3.1426493   -0.9177524 
C    -2.6864841    2.0694340    0.1357581 
N    -4.3163310    0.3358528    0.8758100 
H    -3.9287453    0.9152965   -1.1313285 
H    -3.5630637   -0.3926175    0.8476475 
H    -4.2804032    0.7521336    1.8389920 
O    -2.4090515    2.6436692    1.3715073 
O    -1.7450672    2.1492287   -0.8808710 
H    -0.9323815    2.6442127   -0.5353478 
