13
UFF-Energy = 0.0536504
C    -5.1814737    2.3666138   -0.0087278 
C    -4.0534358    1.3321906   -0.1682615 
H    -6.1696107    1.9004749   -0.2091563 
H    -5.0410907    3.2064424   -0.7247069 
H    -5.1839363    2.7837352    1.0229824 
C    -2.6797568    1.9571162    0.0266731 
N    -4.2807938    0.2147836    0.7615316 
H    -4.0498792    0.9425176   -1.2144302 
H    -4.2690681    0.5654499    1.7505001 
H    -5.2223949   -0.2096150    0.5887128 
O    -2.2876821    2.4340718    1.2743136 
O    -1.8287403    2.1131084   -1.0607686 
H    -0.9690875    2.5414059   -0.7427281 
