13
UFF-Energy = 0.0640977
C    -5.2955473    1.8879758   -0.2528790 
C    -3.8535218    1.3935770   -0.0309641 
H    -5.9270777    1.0859905   -0.6894471 
H    -5.3143830    2.7560964   -0.9485599 
H    -5.7399440    2.2058035    0.7166266 
C    -2.9388855    2.5245693    0.4725297 
N    -3.8935562    0.2477088    0.8968995 
H    -3.4313445    1.0764500   -1.0135319 
H    -4.6725393   -0.4068334    0.6435632 
H    -3.0261409   -0.3258622    0.7777289 
O    -3.3010644    3.8493564    0.2499065 
O    -1.6932589    2.2772229    1.0505586 
H    -1.5332465    1.2951570    1.2018874 
