13
UFF-Energy = 0.0637796
C    -5.3652207    1.9149794   -0.2861086 
C    -3.9815492    1.3320105    0.0285926 
H    -5.5635851    2.8091820    0.3448304 
H    -6.1597550    1.1649266   -0.0846642 
H    -5.4303304    2.2125388   -1.3562493 
C    -2.8652352    2.3117271   -0.3393504 
N    -3.9496471    0.9659900    1.4532769 
H    -3.8169266    0.4253153   -0.6035668 
H    -4.6403527    0.1977785    1.6291916 
H    -3.0094532    0.5632859    1.6876879 
O    -2.1181802    2.0852208   -1.4882507 
O    -2.5925887    3.4409175    0.4313418 
H    -3.1977459    3.4793869    1.2389240 
