13
UFF-Energy = 0.0750157
C    -5.4007816    2.0204099   -0.1834401 
C    -4.0283979    1.3419936   -0.0140155 
H    -6.2187168    1.2714796   -0.1010906 
H    -5.4755325    2.4987113   -1.1861207 
H    -5.5620204    2.8044382    0.5875978 
C    -2.8554321    2.3067797   -0.2176405 
N    -3.9742000    0.6690971    1.2934484 
H    -3.9062434    0.5755594   -0.8182908 
H    -4.2655808    1.3201358    2.0606321 
H    -4.6543443   -0.1279481    1.3024585 
O    -2.0233934    2.1367561   -1.3179671 
O    -2.6168009    3.3790822    0.6428910 
H    -3.2839060    3.4005000    1.3968367 
