13
UFF-Energy = 0.0608816
C    -5.2325067    2.1422388   -0.2472288 
C    -3.9436446    1.3389841   -0.0470605 
H    -6.0850829    1.4498405   -0.4209009 
H    -5.1444534    2.8251095   -1.1197129 
H    -5.4573058    2.7488388    0.6579991 
C    -2.7379785    2.2536125    0.1984162 
N    -4.1725431    0.3816371    1.0462280 
H    -3.7317199    0.7662362   -0.9800040 
H    -3.3156722   -0.2088258    1.1749326 
H    -4.2985199    0.9004122    1.9501539 
O    -2.3465984    2.5524290    1.4980008 
O    -2.0472715    2.8399385   -0.8618588 
H    -2.4402530    2.5925131   -1.7575395 
