13
UFF-Energy = 0.0633582
C    -5.2882062    2.1888858   -0.0346426 
C    -3.9276316    1.4861141   -0.0246023 
H    -5.3012267    3.0265687   -0.7642777 
H    -5.5108230    2.5902167    0.9805291 
H    -6.0940207    1.4721606   -0.3015256 
C    -2.8005339    2.4685852    0.3171745 
N    -4.0185420    0.3686276    0.9295270 
H    -3.7004234    1.0957355   -1.0450775 
H    -4.5525706   -0.4219588    0.4979888 
H    -3.0608764   -0.0013202    1.1492278 
O    -2.2029236    2.4447097    1.5713586 
O    -2.3544837    3.4031989   -0.6171712 
H    -2.8803582    3.3611132   -1.4766847 
