13
UFF-Energy = 0.0458511
C    -5.2186585    2.0685565    0.5116567 
C    -4.0736365    1.3936289   -0.2631749 
H    -4.9715656    2.1298435    1.5948192 
H    -6.1631040    1.4969096    0.3893928 
H    -5.3856270    3.1010455    0.1327152 
C    -2.7804585    2.1913304   -0.1694711 
N    -3.8950800    0.0181653    0.2240770 
H    -4.3336108    1.3615962   -1.3475235 
H    -3.6401596    0.0348678    1.2415838 
H    -4.7932714   -0.5116616    0.1320785 
O    -2.2840611    2.8502628   -1.2891361 
O    -2.1134906    2.3180229    1.0443561 
H    -1.2837366    2.8775271    0.8993556 
