13
UFF-Energy = 0.0391503
C    -5.2542421    2.1001065    0.3121340 
C    -3.9886085    1.4176489   -0.2143096 
H    -6.1426109    1.4691719    0.0943908 
H    -5.3924258    3.0927391   -0.1692129 
H    -5.1850998    2.2444609    1.4128077 
C    -2.7450297    2.2530334    0.0629574 
N    -3.9156000    0.0710576    0.3751720 
H    -4.0639513    1.3318415   -1.3248723 
H    -3.0700315   -0.4217174    0.0001396 
H    -3.7508433    0.1597678    1.4081908 
O    -2.2207471    3.0676650   -0.9327263 
O    -2.1471185    2.2384278    1.3173032 
H    -1.3557212    2.8693114    1.3090648 
