13
UFF-Energy = 0.0643347
C    -5.3943666    2.0915502   -0.0974241 
C    -4.0505363    1.3603874    0.0258603 
H    -5.5142315    2.8599752    0.6950099 
H    -6.2283449    1.3623823    0.0080100 
H    -5.4836727    2.5853822   -1.0904772 
C    -2.8430780    2.2751237   -0.1992127 
N    -4.0178775    0.6719333    1.3259650 
H    -3.9956865    0.5973368   -0.7900797 
H    -3.1331716    0.1134623    1.4054502 
H    -4.0046274    1.3683022    2.1085811 
O    -1.9410478    1.9603446   -1.2066142 
O    -2.6018137    3.3994276    0.5898024 
H    -3.3295454    3.5430466    1.2713382 
