13
UFF-Energy = 0.0609265
C    -4.7347866    2.6421810    0.6609108 
C    -4.2591907    1.3687959   -0.0480585 
H    -4.7088605    3.5114780   -0.0321463 
H    -4.1037435    2.8674464    1.5463054 
H    -5.7797291    2.5017155    1.0136852 
C    -2.8602532    1.5174745   -0.6535303 
N    -4.3714509    0.2428410    0.8922843 
H    -4.9429849    1.1815731   -0.9111451 
H    -4.1595594   -0.6524944    0.3879583 
H    -3.6673098    0.3278919    1.6624774 
O    -2.7096003    1.4212349   -2.0306016 
O    -1.7326236    1.7723580    0.1279905 
H    -1.9510977    1.8119541    1.1106353 
