13
Energy =
C    -5.2187095    2.2887657    0.0560950 
C    -3.9776750    1.4330947   -0.2241663 
H    -5.1422141    3.2732733   -0.4538284 
H    -5.3126376    2.4621761    1.1519592 
H    -6.1349143    1.7714086   -0.2975732 
C    -2.6936702    2.1594362    0.1532597 
N    -4.1210790    0.1657627    0.5075920 
H    -3.9031382    1.2378464   -1.3208772 
H    -4.8994583   -0.3917033    0.0833848 
H    -3.2517166   -0.4067287    0.3766457 
O    -2.6410735    2.9998577    1.2616826 
O    -1.5489830    1.9689766   -0.6107523 
H    -0.7918607    2.5045334   -0.2053721 
