13
Energy =
C    -5.3079442    2.1409428    0.3293663 
C    -4.0262678    1.4560232   -0.1780077 
H    -5.4622482    3.1092770   -0.1954651 
H    -5.2342866    2.3480175    1.4206538 
H    -6.1959462    1.4991483    0.1467003 
C    -2.7916657    2.3294034    0.0027017 
N    -3.8678280    0.1570133    0.4938979 
H    -4.1095333    1.2947092   -1.2795706 
H    -3.8075729    0.2982370    1.5323244 
H    -4.7046910   -0.4457486    0.3096352 
O    -2.5821868    3.0255344    1.1871539 
O    -1.8289941    2.3859291   -0.9948614 
H    -1.2362953    1.5731383   -0.9056634 
