13
Energy =
C    -5.3203569    2.1943754    0.1422447 
C    -4.0215653    1.4432122   -0.2061542 
H    -5.4062223    3.1223001   -0.4664184 
H    -5.3286525    2.4887211    1.2148893 
H    -6.2094672    1.5617335   -0.0654187 
C    -2.7584200    2.2867502    0.0186367 
N    -3.9800514    0.1825504    0.5518022 
H    -4.0263346    1.2116311   -1.2968220 
H    -4.0432831    0.3776686    1.5808753 
H    -4.8046817   -0.4125122    0.2976153 
O    -2.8619243    3.6592771    0.2177706 
O    -1.4882154    1.7159127   -0.0373405 
H    -1.5480554    0.7159686   -0.1663298 
