13
Energy =
C    -5.0704725    2.5523941    0.2960179 
C    -4.1274454    1.3907212   -0.0649702 
H    -5.0649393    3.3243344   -0.5042079 
H    -4.7493408    3.0338506    1.2475875 
H    -6.1137913    2.1889925    0.4168834 
C    -2.6986660    1.8683338   -0.2905309 
N    -4.1973723    0.3653231    0.9875645 
H    -4.4402278    0.9362529   -1.0361578 
H    -3.8560437    0.7620135    1.8977719 
H    -5.1875921    0.0556936    1.1295106 
O    -1.9181819    2.2873686    0.7803095 
O    -2.1998626    1.9883321   -1.5811682 
H    -2.5599741    2.8350235   -1.9954162 
