13
Energy =
C    -5.0439505    2.0691542   -0.4552075 
C    -3.7606555    1.2893007   -0.1250827 
H    -4.8020237    2.9752993   -1.0523567 
H    -5.5514625    2.3909998    0.4814685 
H    -5.7420023    1.4383624   -1.0452130 
C    -2.7614348    2.1478238    0.6383479 
N    -4.1049367    0.0691824    0.6201928 
H    -3.2541101    1.0006796   -1.0758624 
H    -4.5798842    0.3236000    1.5201394 
H    -4.7707997   -0.5151125    0.0619963 
O    -1.5280545    2.4561046    0.0744429 
O    -3.0887395    2.6744598    1.8834037 
H    -2.2959360    3.1992544    2.2280754 
