13
Energy =
C    -5.1292237    2.0187944   -0.5088998 
C    -3.9571732    1.2920048    0.1796520 
H    -4.8228285    2.3939720   -1.5116633 
H    -5.4750133    2.8835231    0.0974175 
H    -5.9826782    1.3202872   -0.6511154 
C    -2.6975474    2.1618160    0.2385370 
N    -4.3779754    0.7768668    1.5023632 
H    -3.6658215    0.4176766   -0.4523137 
H    -3.8305426    1.2052965    2.2877370 
H    -5.3918507    0.9480381    1.7052031 
O    -1.5878612    1.8006766   -0.5140747 
O    -2.6425808    3.3274064    1.0029667 
H    -3.5144936    3.5025356    1.4780857 
