13
Energy =
C    -5.3247480    1.9584477    0.0764318 
C    -3.8875449    1.4779320   -0.1488620 
H    -5.4903396    2.9424687   -0.4143622 
H    -5.5304137    2.0646110    1.1642785 
H    -6.0409598    1.2213516   -0.3463003 
C    -2.8708054    2.4627050    0.4149505 
N    -3.7605300    0.1284268    0.4256130 
H    -3.6911315    1.4336060   -1.2471234 
H    -2.7793117   -0.2134647    0.2870659 
H    -3.8852834    0.1888621    1.4660178 
O    -2.3630902    3.4706806   -0.3951366 
O    -2.4686416    2.3882604    1.7430462 
H    -1.8152503    3.1383572    1.9293420 
