13
Energy =
C    -5.1070860    1.8340135   -0.5897381 
C    -3.7453769    1.4219589   -0.0200277 
H    -4.9900532    2.6511827   -1.3341929 
H    -5.7729645    2.1905331    0.2273967 
H    -5.5906132    0.9643835   -1.0844842 
C    -3.0402485    2.5871775    0.6639327 
N    -3.9555516    0.2777121    0.8813622 
H    -3.0824287    1.1138734   -0.8641970 
H    -3.0302115   -0.0428920    1.2548239 
H    -4.5048717    0.5975365    1.7164205 
O    -1.8953514    3.1345453    0.0991986 
O    -3.5341919    3.1187993    1.8484319 
H    -2.9371009    3.8851802    2.1315996 
