13
Energy =
C    -5.1035985    2.4513542   -0.0304075 
C    -4.0157614    1.3916090   -0.2224902 
H    -4.9230322    3.3221442   -0.6970848 
H    -5.1166690    2.8041524    1.0243218 
H    -6.0981885    2.0169338   -0.2682156 
C    -2.6337359    1.9461425    0.0870993 
N    -4.3594814    0.2262974    0.6073885 
H    -3.9931691    1.0889840   -1.2972244 
H    -3.6828389   -0.5477703    0.4037326 
H    -4.2287764    0.4667886    1.6211644 
O    -2.2953394    2.3191770    1.3834322 
O    -1.7083111    2.1103479   -0.9340249 
H    -0.8554081    2.4915163   -0.5442540 
