13
Energy =
C    -5.1828219    2.3357062    0.4082562 
C    -4.0813329    1.4140439   -0.1200243 
H    -5.1999911    3.2901590   -0.1604575 
H    -5.0090458    2.5620257    1.4834483 
H    -6.1710035    1.8382215    0.3074057 
C    -2.7069663    2.0563187    0.0076892 
N    -4.1747175    0.1324693    0.5956537 
H    -4.2516543    1.2420680   -1.2096586 
H    -3.5057257   -0.5475052    0.1617384 
H    -3.8522023    0.2640639    1.5863367 
O    -1.9620709    2.3428077   -1.1296512 
O    -2.1930763    2.3756891    1.2592061 
H    -1.2774914    2.7905794    1.1400076 
