13
Energy =
C    -5.1135097    1.9990799   -0.5170318 
C    -3.9093040    1.3107863    0.1382722 
H    -4.8395896    2.4107491   -1.5127932 
H    -5.4764896    2.8374556    0.1180339 
H    -5.9450817    1.2725572   -0.6432971 
C    -2.7174925    2.2573397    0.3168213 
N    -4.3585827    0.7291511    1.4120402 
H    -3.5723705    0.4941299   -0.5424978 
H    -3.5703238    0.1980869    1.8541375 
H    -4.6029556    1.5000386    2.0819315 
O    -2.9337550    3.6093963    0.5528649 
O    -1.4071172    1.7804967    0.3048716 
H    -1.3620580    0.7790781    0.1916831 
