13
Energy =
C    -5.2548409    2.1899442    0.5470860 
C    -4.1165213    1.4763956   -0.1850614 
H    -5.5114029    3.1418684    0.0338061 
H    -4.9583311    2.4160957    1.5946331 
H    -6.1550831    1.5393589    0.5667803 
C    -2.8658132    2.3417698   -0.2483745 
N    -3.8821259    0.1845941    0.4784083 
H    -4.4290748    1.2964643   -1.2413043 
H    -3.1849807   -0.3617207   -0.0817143 
H    -3.4365033    0.3476332    1.4150578 
O    -2.1178332    2.5875149    0.8980044 
O    -2.4879085    2.9292142   -1.4474426 
H    -1.6455910    3.4694342   -1.2951847 
