13
Energy =
C    -5.1232873    2.1663396   -0.3872816 
C    -3.9524741    1.2952856    0.0795545 
H    -4.9086273    2.6098933   -1.3836442 
H    -5.3029020    2.9909994    0.3376045 
H    -6.0470387    1.5528504   -0.4576916 
C    -2.6628732    2.0942880    0.1885399 
N    -4.3336645    0.6591193    1.3504919 
H    -3.7565640    0.5087533   -0.6892400 
H    -3.5643144    0.0166360    1.6576745 
H    -4.4088152    1.3942865    2.0958530 
O    -2.5355568    3.1141038    1.1244620 
O    -1.6013881    1.8129690   -0.6589100 
H    -0.8404183    2.4449502   -0.4429575 
