13
Energy =
C    -5.3882451    2.0301458   -0.3787150 
C    -4.0699559    1.3460490    0.0107046 
H    -5.3407751    2.4085063   -1.4242498 
H    -5.5990309    2.8861925    0.2995734 
H    -6.2356971    1.3146351   -0.3084792 
C    -2.8688286    2.2752343   -0.1905938 
N    -4.1847074    0.8870380    1.4035358 
H    -3.9019214    0.4728940   -0.6658373 
H    -4.9568354    0.1817975    1.4739785 
H    -3.3080391    0.3790950    1.6746047 
O    -2.0260943    2.0676424   -1.2757350 
O    -2.6091332    3.3401856    0.6711556 
H    -3.2893364    3.3694229    1.4172539 
