13
Energy =
C    -5.2825234    2.0902580    0.2933787 
C    -3.9762302    1.5145267   -0.2780980 
H    -5.4296917    3.1349039   -0.0616999 
H    -5.2517438    2.1038744    1.4054451 
H    -6.1537563    1.4854115   -0.0366834 
C    -2.7696393    2.3556843    0.1164508 
N    -3.8290718    0.1139951    0.1469745 
H    -4.0171717    1.5541822   -1.3926909 
H    -3.8858163    0.0510328    1.1925854 
H    -4.6217251   -0.4521282   -0.2383263 
O    -2.3117667    3.3517913   -0.7352729 
O    -2.1533716    2.1839350    1.3489925 
H    -1.4919019    1.4266178    1.2638158 
