13
Energy =
C    -5.3781285    1.9615132   -0.1275901 
C    -3.9850276    1.3246703   -0.0501122 
H    -5.5133506    2.4902792   -1.0968414 
H    -5.5436086    2.6822741    0.7003786 
H    -6.1548070    1.1688764   -0.0488845 
C    -2.8505377    2.3333032   -0.2550795 
N    -3.8818251    0.5895230    1.2200748 
H    -3.8938294    0.5983075   -0.8947387 
H    -2.9753694    0.0619839    1.2424770 
H    -3.8619844    1.2537424    2.0299027 
O    -1.9486832    2.1301003   -1.2909041 
O    -2.6783404    3.4405493    0.5757637 
H    -3.3972181    3.5012541    1.2783558 
