13
Energy =
C    -5.0053657    2.2976945    0.9443170 
C    -4.1476544    1.7233046   -0.1992897 
H    -5.1388673    3.3952331    0.8140240 
H    -4.5097527    2.1324264    1.9263932 
H    -6.0108748    1.8262357    0.9618710 
C    -2.7658275    2.3802872   -0.2981643 
N    -4.0488968    0.2636780   -0.0358153 
H    -4.6399449    1.9533407   -1.1738933 
H    -3.6050374    0.0356374    0.8875067 
H    -5.0058982   -0.1633925   -0.0350866 
O    -2.5045801    3.5602677    0.3889393 
O    -1.7733349    1.8580348   -1.1254447 
H    -2.0709452    0.9933664   -1.5544929 
