13
Energy =
C    -5.3337407    2.2327592    0.2741850 
C    -4.0727271    1.5365123   -0.2715579 
H    -5.4536543    3.2355691   -0.1932039 
H    -5.2592240    2.3761707    1.3748104 
H    -6.2428889    1.6358281    0.0482362 
C    -2.7846863    2.3378195   -0.0317525 
N    -3.9850207    0.1842144    0.3001341 
H    -4.1668906    1.4547706   -1.3790997 
H    -3.9637246    0.2369043    1.3476316 
H    -4.8340047   -0.3692289    0.0335120 
O    -2.8476136    3.6273156    0.4865778 
O    -1.5371080    1.8146656   -0.3687898 
H    -1.6203666    0.8632246   -0.6981621 
