13
Energy =
C    -5.2461554    2.0445710   -0.2605967 
C    -3.8615939    1.4293367   -0.0576579 
H    -5.2241386    2.8094700   -1.0657290 
H    -5.5741624    2.5324390    0.6844700 
H    -5.9811188    1.2552794   -0.5232957 
C    -2.8121283    2.4944612    0.2465827 
N    -3.9844063    0.4150903    1.0070264 
H    -3.5364647    0.9546437   -1.0149805 
H    -3.8305388   -0.5380606    0.6017381 
H    -3.2461908    0.5434394    1.7416699 
O    -1.5147569    2.3408847   -0.2247433 
O    -3.1226403    3.6040445    1.0230903 
H    -2.2888650    4.1681476    1.1270789 
