13
Energy =
C    -5.3529503    2.0154463    0.1012263 
C    -3.9341714    1.4647249   -0.1187805 
H    -5.5348968    2.8858459   -0.5678915 
H    -5.4812782    2.3555350    1.1530165 
H    -6.1140891    1.2383126   -0.1232952 
C    -2.8719610    2.5245820    0.1429582 
N    -3.7368373    0.2709190    0.7190221 
H    -3.8114027    1.1837272   -1.1922795 
H    -3.9359267    0.5026309    1.7226957 
H    -4.4175663   -0.4726351    0.4341551 
O    -2.3496723    3.2566782   -0.9141432 
O    -2.4586657    2.8161436    1.4361309 
H    -1.7548220    2.1416144    1.6966914 
