13
Energy =
C    -5.2783883    2.1524864    0.2597881 
C    -3.9980426    1.4031236   -0.1243330 
H    -5.4599822    3.0060356   -0.4281475 
H    -5.1875663    2.5409406    1.3003298 
H    -6.1542599    1.4707725    0.2202696 
C    -2.7922625    2.3366473   -0.1421853 
N    -3.8180916    0.2964517    0.8265474 
H    -4.1022767    1.0012905   -1.1605953 
H    -4.5564781   -0.4275213    0.6611243 
H    -2.8993952   -0.1764674    0.6450210 
O    -2.4436607    3.0711057    0.9845219 
O    -2.0395466    2.4755667   -1.3014298 
H    -2.5134593    3.1093673   -1.9280510 
