13
Energy =
C    -5.0765701    1.9211380   -0.5547966 
C    -3.8630982    1.2234106    0.0670033 
H    -4.8049922    2.4100057   -1.5147722 
H    -5.4782235    2.6920413    0.1399993 
H    -5.8793002    1.1768429   -0.7486015 
C    -2.7344143    2.2045483    0.3628205 
N    -4.3173627    0.5043913    1.2669612 
H    -3.4569115    0.4869894   -0.6672061 
H    -3.5145189   -0.0374623    1.6689944 
H    -4.5966586    1.1956870    2.0058370 
O    -2.8632189    3.1408623    1.3804723 
O    -1.5853478    2.2010764   -0.4155087 
H    -1.7681933    2.6943436   -1.2769456 
