13
Energy =
C    -5.2353234    2.3048689    0.2458471 
C    -4.0338457    1.4341205   -0.1274831 
H    -5.2813795    3.2041047   -0.4055724 
H    -5.1558074    2.6340524    1.3053119 
H    -6.1746421    1.7243232    0.1242713 
C    -2.7242587    2.1926770    0.0368228 
N    -4.0842158    0.2104825    0.6873585 
H    -4.1097183    1.1636963   -1.2077814 
H    -3.3366112   -0.4448887    0.3568881 
H    -3.8380947    0.4485020    1.6804041 
O    -1.9874409    2.5648396   -1.0798456 
O    -2.2672549    2.5435806    1.3009880 
H    -1.3941375    3.0457879    1.1983711 
