13
Energy =
C    -5.0535314    2.2531516   -0.4353867 
C    -3.9084993    1.3060998   -0.0573154 
H    -4.7154449    3.0017809   -1.1839783 
H    -5.4046648    2.7933609    0.4728831 
H    -5.9071223    1.6826086   -0.8572506 
C    -2.6800299    2.0656480    0.4280318 
N    -4.4093665    0.3703853    0.9609422 
H    -3.5755654    0.7469142   -0.9645700 
H    -5.1155883   -0.2689210    0.5259314 
H    -3.6214883   -0.2443954    1.2807231 
O    -2.8021444    3.2601998    1.1320206 
O    -1.4141093    1.5511659    0.1786461 
H    -0.7254651    2.1683307    0.5899230 
