13
Energy =
C    -5.3631444    2.2298748    0.4513049 
C    -4.1124200    1.5829051   -0.1705572 
H    -5.5159583    3.2529172    0.0410132 
H    -5.2472205    2.3084773    1.5550015 
H    -6.2649958    1.6227506    0.2220723 
C    -2.8800129    2.4555780    0.0380571 
N    -3.9461807    0.1978303    0.3300660 
H    -4.2445735    1.5404290   -1.2778306 
H    -3.0257079    0.0774124    0.8200378 
H    -4.6735728   -0.0612355    1.0375919 
O    -2.2251595    2.4814120    1.2646623 
O    -2.4372058    3.2826123   -0.9846623 
H    -1.6230077    3.7893905   -0.6607635 
