13
Energy =
C    -5.1609496    1.9623489   -0.6438391 
C    -3.8816500    1.3834698   -0.0259783 
H    -4.9158079    2.6265533   -1.5010363 
H    -5.7024402    2.5654680    0.1181934 
H    -5.8294922    1.1494843   -0.9957703 
C    -2.8909309    2.4696709    0.3887894 
N    -4.2749476    0.5394431    1.1129495 
H    -3.3496663    0.7712954   -0.7917475 
H    -4.7691367   -0.3121228    0.7568275 
H    -3.4139778    0.1914004    1.6023011 
O    -1.6583978    2.1079789    0.9222575 
O    -3.1732628    3.8184239    0.1949548 
H    -2.3962303    4.3671051    0.5394977 
