13
Energy =
C    -5.2956458    2.0852151   -0.0411599 
C    -3.9249754    1.3881941   -0.0992197 
H    -5.3191305    2.9485227   -0.7420301 
H    -5.4938239    2.4648235    0.9861224 
H    -6.1055999    1.3816519   -0.3286219 
C    -2.7886547    2.3456350    0.2338585 
N    -3.9301348    0.2227525    0.7978092 
H    -3.7304563    1.0428893   -1.1421344 
H    -4.0845146    0.5404410    1.7858901 
H    -4.7170543   -0.4196624    0.5449420 
O    -1.8780875    2.7184014   -0.7484930 
O    -2.6773542    2.8970194    1.5054458 
H    -1.8634382    3.4971415    1.5227272 
