13
Energy =
C    -5.3253735    2.2662135    0.1911306 
C    -4.0772957    1.4318371   -0.1064902 
H    -5.4076499    3.1125906   -0.5246421 
H    -5.2787395    2.6750728    1.2245183 
H    -6.2336049    1.6322050    0.1025322 
C    -2.8066607    2.2615897    0.0188012 
N    -4.0826799    0.2660733    0.7904556 
H    -4.1235994    1.0841375   -1.1663656 
H    -3.2899022   -0.3664513    0.5278991 
H    -3.8812349    0.5860727    1.7705077 
O    -2.1154170    2.6548465   -1.1203318 
O    -2.3436885    2.6567024    1.2684607 
H    -1.5036539    3.2078271    1.1445747 
