13
Energy =
C    -5.2479052    2.0035339    0.6837766 
C    -4.0819592    1.4831937   -0.1605920 
H    -5.5114898    3.0421316    0.3879945 
H    -4.9754904    1.9976312    1.7621206 
H    -6.1372927    1.3530319    0.5408400 
C    -2.8381936    2.3458618    0.0111329 
N    -3.8513726    0.0748939    0.1973454 
H    -4.3635997    1.5490801   -1.2387863 
H    -3.1107704   -0.3186468   -0.4307513 
H    -3.4539896    0.0289863    1.1685244 
O    -2.4730855    3.2456384   -0.9825055 
O    -2.0804498    2.2684188    1.1737861 
H    -1.3122017    2.9240722    1.1069099 
