13
Energy =
C    -5.1266402    2.0670924   -0.5272625 
C    -4.0028402    1.3176114    0.2123431 
H    -4.7781887    2.3997290   -1.5301594 
H    -5.4335870    2.9715845    0.0440362 
H    -6.0130621    1.4118001   -0.6637313 
C    -2.7313962    2.1468812    0.3405210 
N    -4.4899581    0.8840212    1.5296793 
H    -3.7100096    0.4209982   -0.3841734 
H    -4.7904294    1.7213408    2.0863889 
H    -5.3340083    0.2748021    1.4118223 
O    -2.7935156    3.5060645    0.6234659 
O    -1.4905670    1.5331800    0.2478899 
H    -1.2798576    1.1163097    1.1430813 
