13
Energy =
C    -5.3058299    1.7962055    0.0788562 
C    -3.8285241    1.4142646   -0.0750566 
H    -5.5576836    2.6625151   -0.5717545 
H    -5.5479889    2.0555922    1.1308578 
H    -5.9451989    0.9353760   -0.2155063 
C    -2.8803094    2.5825520    0.2060412 
N    -3.5651484    0.2354144    0.7653522 
H    -3.6498182    1.1421761   -1.1449227 
H    -2.5891693   -0.1051519    0.5865032 
H    -3.6121011    0.4836002    1.7817782 
O    -2.0508479    3.0334877   -0.8115931 
O    -2.8286135    3.2209585    1.4453950 
H    -3.4692468    2.8171441    2.1090156 
