13
Energy =
C    -5.3752842    1.6644344   -0.3672876 
C    -3.8765241    1.4540996   -0.1200855 
H    -5.5414521    2.4114757   -1.1740288 
H    -5.8722738    2.0326569    0.5579629 
H    -5.8511805    0.7044806   -0.6623944 
C    -3.1746529    2.7508965    0.2671899 
N    -3.7276659    0.4024719    0.8987668 
H    -3.4034264    1.1222918   -1.0758066 
H    -2.7120387    0.2014512    1.0588052 
H    -4.1067013    0.7498615    1.8142759 
O    -3.6175834    3.4977942    1.3498463 
O    -2.0583558    3.1776594   -0.4381717 
H    -1.2604911    2.6259604   -0.1606890 
