13
Energy =
C    -5.1988901    2.3876880   -0.1130782 
C    -4.0250607    1.4017361   -0.1003468 
H    -5.0755374    3.1339950   -0.9286617 
H    -5.2856515    2.9248544    0.8544562 
H    -6.1477187    1.8333958   -0.2826090 
C    -2.6667338    2.0977177    0.0202815 
N    -4.2644517    0.4073905    0.9574519 
H    -4.0056757    0.8782457   -1.0877142 
H    -3.5290297   -0.3389126    0.9018997 
H    -4.1734661    0.8439606    1.9049886 
O    -1.7394484    1.9428748   -1.0007568 
O    -2.3286832    2.8895104    1.1178202 
H    -3.0719228    2.9385805    1.7952180 
