13
Energy =
C    -4.7849571    1.8371715   -0.9623590 
C    -3.8757131    1.3415603    0.1781838 
H    -4.1744242    2.2602764   -1.7915930 
H    -5.4685725    2.6364262   -0.6002990 
H    -5.3935448    1.0036097   -1.3734135 
C    -2.9746723    2.4458845    0.7503159 
N    -4.7152130    0.7174959    1.2145977 
H    -3.1673014    0.5817905   -0.2294008 
H    -5.4332435    1.4028101    1.5558293 
H    -5.2378789   -0.0954260    0.8076450 
O    -2.6762154    3.5652458   -0.0182236 
O    -2.3647760    2.3152438    1.9966251 
H    -2.6563777    1.4626597    2.4517563 
