13
Energy =
C    -5.2865196    2.1444642   -0.0737865 
C    -3.9417902    1.4094573   -0.0704345 
H    -5.2864381    2.9553350   -0.8334899 
H    -5.4573807    2.6019759    0.9263895 
H    -6.1162185    1.4410134   -0.2933136 
C    -2.7694379    2.3619105    0.1457650 
N    -3.9958186    0.3681473    0.9665742 
H    -3.7766931    0.9445075   -1.0708578 
H    -4.6585273   -0.3837324    0.6635411 
H    -3.0548817   -0.0910482    1.0406313 
O    -1.4800817    1.9477752   -0.1666218 
O    -2.9624784    3.6424181    0.6528378 
H    -2.0597141    4.0905454    0.7420306 
