13
Energy =
C    -5.2798595    2.1068406   -0.1993973 
C    -3.9343649    1.3744330   -0.0559855 
H    -5.2220133    2.8648179   -1.0110120 
H    -5.5358757    2.6308854    0.7488104 
H    -6.0915801    1.3906671   -0.4475841 
C    -2.7933962    2.3406516    0.2344089 
N    -4.0476687    0.3430422    0.9864811 
H    -3.6755647    0.8848469   -1.0244455 
H    -4.2608807    0.7957176    1.9087715 
H    -4.8355883   -0.3088629    0.7622781 
O    -1.7571296    2.4951086   -0.6796234 
O    -2.7983365    3.1124102    1.3912820 
H    -1.9584315    3.6759368    1.4031922 
