13
Energy =
C    -5.2252114    2.1236003    0.7266043 
C    -4.0915136    1.5360360   -0.1325207 
H    -5.4140431    3.1837714    0.4466917 
H    -4.9486629    2.0945793    1.8041712 
H    -6.1663459    1.5519885    0.5807699 
C    -2.8123709    2.3497804   -0.0090935 
N    -3.8750000    0.1297078    0.2399333 
H    -4.3717626    1.5900637   -1.2120418 
H    -3.5514170    0.0784862    1.2373301 
H    -4.7731890   -0.4037138    0.1727411 
O    -2.3650427    3.1094709   -1.0843442 
O    -2.1100605    2.3861640    1.1907496 
H    -1.2965004    2.9757493    1.0737502 
