13
Energy =
C    -5.3508623    2.1741268   -0.1233335 
C    -4.0810259    1.3283473   -0.0064533 
H    -5.4407215    2.6040217   -1.1439938 
H    -5.3249890    3.0059980    0.6148558 
H    -6.2433221    1.5455386    0.0827467 
C    -2.8309112    2.1563209   -0.2712227 
N    -4.0701439    0.7017093    1.3238203 
H    -4.1094897    0.5332186   -0.7892304 
H    -3.2701650    0.0265261    1.3733586 
H    -3.8762528    1.4344113    2.0503790 
O    -1.9914193    1.8352607   -1.3306169 
O    -2.5223702    3.2425537    0.5393328 
H    -1.6619270    3.6610541    0.2088612 
