13
Energy =
C    -5.2911782    2.2386504    0.1469884 
C    -4.0347759    1.3681874    0.0016196 
H    -5.3561643    2.9830316   -0.6766991 
H    -5.2544240    2.7906033    1.1138281 
H    -6.2075218    1.6116994    0.1347406 
C    -2.7543428    2.2085813   -0.1121438 
N    -3.9904724    0.4528668    1.1527524 
H    -4.1125823    0.7902391   -0.9494202 
H    -4.8166698   -0.1916817    1.1244778 
H    -3.1400035   -0.1564601    1.0994827 
O    -2.7602405    3.5539548    0.2398220 
O    -1.5672593    1.6497428   -0.5863793 
H    -1.6621651    0.6626783   -0.7654350 
