13
Energy =
C    -5.1953270    2.3078686   -0.0035033 
C    -3.9668004    1.4049688   -0.1557850 
H    -5.1695615    3.1329565   -0.7476657 
H    -5.2274224    2.7538207    1.0153086 
H    -6.1227348    1.7150062   -0.1556670 
C    -2.6561635    2.1749637    0.0364792 
N    -4.1017627    0.2888084    0.7909310 
H    -3.9714303    1.0047192   -1.1958773 
H    -3.3197359   -0.3920873    0.6379436 
H    -3.9902310    0.6457382    1.7720742 
O    -2.5778351    3.1712207    1.0019776 
O    -1.5110426    1.8574148   -0.6932145 
H    -1.6585128    1.0840586   -1.3239101 
