13
Energy =
C    -5.0228671    2.5126820   -0.4772023 
C    -4.1335502    1.3615880    0.0109211 
H    -4.6145723    2.9576901   -1.4121209 
H    -5.0856775    3.3084161    0.2975701 
H    -6.0509432    2.1470372   -0.6856945 
C    -2.6792443    1.8107243    0.1789453 
N    -4.7038141    0.8419052    1.2636215 
H    -4.1200827    0.5573668   -0.7647458 
H    -5.6529073    0.4403295    1.0720335 
H    -4.1186430    0.0403784    1.6038419 
O    -1.7553876    1.4903222   -0.8074741 
O    -2.2636172    2.5730550    1.2695947 
H    -3.0268535    2.7220036    1.9140529 
