13
Energy =
C    -5.2588640    2.1824066    0.2568520 
C    -3.9738654    1.4613348   -0.1612400 
H    -5.3533771    3.1523391   -0.2789188 
H    -5.2525816    2.3799941    1.3511552 
H    -6.1419352    1.5522558    0.0166787 
C    -2.7372143    2.2983526    0.1414897 
N    -3.9516125    0.1442523    0.4961865 
H    -3.9841429    1.3233068   -1.2688821 
H    -3.0727687   -0.3577549    0.2234918 
H    -3.8722383    0.2852532    1.5331764 
O    -2.2727470    3.2104692   -0.7967775 
O    -2.0833666    2.1879040    1.3618941 
H    -1.3105364    2.8416009    1.3729544 
