13
Energy =
C    -5.1123444    1.7993986   -0.6023408 
C    -3.7652957    1.4717207    0.0542422 
H    -4.9710097    2.4713948   -1.4778496 
H    -5.7805481    2.3049831    0.1289637 
H    -5.6143166    0.8718961   -0.9497496 
C    -3.0260533    2.7387907    0.4783124 
N    -4.0293690    0.5664540    1.1852231 
H    -3.0966150    0.9795123   -0.6922470 
H    -4.3474922   -0.3620007    0.8200495 
H    -3.1334433    0.3806774    1.7006359 
O    -2.8882562    3.7941281   -0.4138547 
O    -2.4071503    2.8231011    1.7185635 
H    -3.0897363    3.1417309    2.3909516 
