13
Energy =
C    -5.1227428    2.2230683   -0.4454060 
C    -3.9874536    1.3251211    0.0631026 
H    -4.8160822    2.7552960   -1.3718578 
H    -5.3733541    2.9834088    0.3279643 
H    -6.0302825    1.6212429   -0.6606149 
C    -2.6854022    2.0944740    0.2664821 
N    -4.4344169    0.6819001    1.3069053 
H    -3.7662375    0.5496386   -0.7072931 
H    -5.2110602    0.0153024    1.0869024 
H    -3.6513675    0.0972027    1.6885840 
O    -2.6716899    3.4820283    0.3763501 
O    -1.4854812    1.4009130    0.3538801 
H    -0.7405894    2.0690169    0.5048383 
