13
Energy =
C    -5.0069939    1.9517879   -0.7215990 
C    -3.8590003    1.3389502    0.0886406 
H    -4.6316289    2.3638786   -1.6846976 
H    -5.4893774    2.7725987   -0.1466181 
H    -5.7769165    1.1832754   -0.9453984 
C    -2.7339392    2.3523850    0.3049746 
N    -4.4096581    0.8362484    1.3572505 
H    -3.4080892    0.4981928   -0.4934691 
H    -5.0640653    0.0416464    1.1601939 
H    -3.6334108    0.4287065    1.9342366 
O    -1.6060294    2.2894700   -0.5022362 
O    -2.8284881    3.3693038    1.2534168 
H    -3.6874930    3.2936157    1.7788667 
