13
Energy =
C    -5.1043999    2.6209295   -0.0436023 
C    -4.1642815    1.4061403    0.0431846 
H    -4.8308680    3.2632448   -0.9092793 
H    -5.0217980    3.2350077    0.8812937 
H    -6.1584155    2.2940148   -0.1671714 
C    -2.7069558    1.8308441    0.1432058 
N    -4.5598823    0.5629598    1.1816724 
H    -4.2358527    0.8081023   -0.8968407 
H    -4.4411756    1.0997655    2.0757047 
H    -5.5696145    0.2973200    1.1030189 
O    -1.8009306    1.4515523   -0.8411401 
O    -2.2778093    2.6384747    1.1913441 
H    -1.2838263    2.7992181    1.0934350 
