13
Energy =
C    -5.4991340    1.8786374    0.2643280 
C    -4.0815470    1.4910661   -0.1703928 
H    -5.8563505    2.7647037   -0.3044440 
H    -5.5183979    2.1212136    1.3497276 
H    -6.1951975    1.0321093    0.0807761 
C    -3.0938973    2.6322060    0.0328167 
N    -3.6978076    0.2706832    0.5561866 
H    -4.0870198    1.2822596   -1.2674328 
H    -2.7518714   -0.0427622    0.2309925 
H    -3.5973712    0.4902548    1.5772737 
O    -2.7361620    3.0429253    1.3124965 
O    -2.5594303    3.2874703   -1.0681476 
H    -1.9351435    4.0156569   -0.7445402 
