13
Energy =
C    -5.0575237    2.4868034   -0.4440554 
C    -4.0138925    1.4281389   -0.0455914 
H    -4.7344898    3.0108216   -1.3710581 
H    -5.1866860    3.2495769    0.3543904 
H    -6.0414364    2.0101279   -0.6445452 
C    -2.6230400    2.0262541    0.1755513 
N    -4.4943791    0.6816557    1.1282312 
H    -3.8782432    0.7162050   -0.8975014 
H    -4.8009821    1.3317321    1.8896756 
H    -5.3315236    0.1113957    0.8604354 
O    -1.6148943    1.7417948   -0.7369997 
O    -2.3431244    2.8926233    1.2332566 
H    -3.1364850    3.0111347    1.8407353 
