13
Energy =
C    -5.2579433    2.0678865   -0.3232582 
C    -3.8895118    1.4048811   -0.0818263 
H    -5.1798355    2.8387212   -1.1202431 
H    -5.6023576    2.5704712    0.6090996 
H    -6.0085804    1.3104753   -0.6328325 
C    -2.8224397    2.4274309    0.2861312 
N    -3.9985349    0.3628316    0.9587308 
H    -3.5488529    0.9507171   -1.0428200 
H    -4.9689223    0.2661693    1.3404541 
H    -3.7328599   -0.5672799    0.5574798 
O    -1.5298713    2.2941048   -0.2095353 
O    -3.1231830    3.5091759    1.1079655 
H    -2.2761573    4.0406233    1.2597018 
