13
Energy =
C    -5.1585014    2.3024694    0.2753009 
C    -3.9904651    1.4047055   -0.1477086 
H    -5.1440135    3.2582081   -0.2929221 
H    -5.1182233    2.5277070    1.3616295 
H    -6.1193491    1.7825545    0.0697614 
C    -2.6324886    2.0955389    0.0000596 
N    -4.0831083    0.1377052    0.5943815 
H    -4.1010521    1.1896863   -1.2383687 
H    -3.3600722   -0.5296005    0.2297249 
H    -3.8707017    0.2835686    1.6090079 
O    -1.8647877    2.3178062   -1.1350201 
O    -2.1460428    2.5308500    1.2332964 
H    -2.7714241    2.3085178    1.9906577 
