13
Energy =
C    -5.2263023    2.1637517    0.1482181 
C    -4.0027875    1.2565422   -0.0033771 
H    -5.4203475    2.7170950   -0.7959618 
H    -5.0638036    2.8986283    0.9671770 
H    -6.1204191    1.5522535    0.3953864 
C    -2.7523823    2.0531190   -0.3462567 
N    -3.8546874    0.4757683    1.2344472 
H    -4.1764681    0.5627417   -0.8607022 
H    -3.0843968   -0.2231884    1.1052737 
H    -3.5450049    1.1090185    2.0123025 
O    -2.2184747    2.9568396    0.5662538 
O    -2.1443761    1.8928137   -1.5835780 
H    -1.3373997    2.5017540   -1.6333418 
