13
Energy =
C    -5.1214266    2.3617754   -0.1211497 
C    -3.9302999    1.3926359   -0.0022119 
H    -4.9683215    3.0604715   -0.9744146 
H    -5.2217901    2.9740869    0.8019337 
H    -6.0683326    1.8074458   -0.2933695 
C    -2.5905417    2.1153899    0.1816117 
N    -4.1965304    0.4425260    1.0906080 
H    -3.8192059    0.8325646   -0.9612460 
H    -4.3277772    0.9620512    1.9933143 
H    -5.0844782   -0.0814451    0.9023696 
O    -2.4845043    3.4694006   -0.1139262 
O    -1.4422388    1.4272490    0.5680394 
H    -1.6462527    0.4576333    0.7632575 
