13
Energy =
C    -5.1314959    2.2222073    0.6437615 
C    -4.0816673    1.4667828   -0.1739468 
H    -5.2796358    3.2454995    0.2355314 
H    -4.8076237    2.3045343    1.7044400 
H    -6.0998328    1.6787116    0.6093911 
C    -2.7368665    2.1816174   -0.1500121 
N    -4.0030439    0.0909369    0.3412675 
H    -4.4078661    1.4443697   -1.2410925 
H    -3.3608089   -0.4625691   -0.2740450 
H    -3.5440538    0.1067411    1.2861179 
O    -2.3355839    2.9488517   -1.2355187 
O    -1.9185910    2.1086539    0.9702225 
H    -1.0879305    2.6609600    0.7967774 
