13
Energy =
C    -5.2819309    2.1368564   -0.1176842 
C    -3.9477266    1.3725248   -0.0463232 
H    -5.2429560    2.9128062   -0.9153810 
H    -5.5039351    2.6431710    0.8472314 
H    -6.1163804    1.4412958   -0.3536240 
C    -2.7558580    2.2970415    0.2197369 
N    -4.0566489    0.2882154    0.9448299 
H    -3.7319008    0.9271702   -1.0492029 
H    -4.5238934    0.6202611    1.8217726 
H    -4.6638105   -0.4745060    0.5591850 
O    -1.9516336    2.6786868   -0.8471729 
O    -2.4939746    2.8342699    1.4796390 
H    -3.1224911    2.4613719    2.1718198 
