13
Energy =
C    -5.1992225    2.3630286   -0.2538341 
C    -4.0845203    1.3652057    0.0898002 
H    -4.8816369    3.0416509   -1.0750799 
H    -5.4363409    2.9831049    0.6399064 
H    -6.1199129    1.8278501   -0.5676971 
C    -2.7606438    2.0570161    0.4017628 
N    -4.5409631    0.5403252    1.2173850 
H    -3.8879013    0.7200441   -0.7990397 
H    -5.3631628   -0.0327172    0.9140515 
H    -3.7872554   -0.1441994    1.4684230 
O    -2.7197795    3.3679306    0.8691404 
O    -1.5684325    1.3641964    0.2319156 
H    -0.8039182    1.9668524    0.5074551 
