13
Energy =
C    -5.0583287    2.2269206   -0.3812008 
C    -3.9743851    1.2175315    0.0362125 
H    -4.7016447    2.8508414   -1.2301171 
H    -5.3061633    2.9024561    0.4680174 
H    -5.9819140    1.6989547   -0.7004924 
C    -2.6706711    1.9077394    0.4106809 
N    -4.4828338    0.3835149    1.1361997 
H    -3.7202520    0.5627753   -0.8314602 
H    -4.7031962    0.9859360    1.9666259 
H    -5.3703822   -0.0910118    0.8468763 
O    -2.6108423    2.7666196    1.5043628 
O    -1.5383333    1.7269310   -0.3734510 
H    -0.7773934    2.2549764    0.0332904 
