13
Energy =
C    -5.1668516    2.5219536   -0.0787383 
C    -4.1009313    1.4235307   -0.0927745 
H    -4.9616001    3.2780606   -0.8664455 
H    -5.1763555    3.0305318    0.9105848 
H    -6.1690441    2.0770602   -0.2564617 
C    -2.7079657    1.9905853    0.1451173 
N    -4.4758880    0.4104857    0.9051792 
H    -4.0836891    0.9550647   -1.1057889 
H    -3.8163017   -0.4008109    0.8309497 
H    -4.3420432    0.8062730    1.8682541 
O    -1.7028749    1.7869186   -0.7921899 
O    -2.4303982    2.7189985    1.2958109 
H    -1.4585467    3.0010653    1.2763820 
