13
Energy =
C    -5.2254735    2.4157028    0.4599607 
C    -4.1456613    1.4929668   -0.1219798 
H    -5.2993136    3.3566634   -0.1272818 
H    -4.9689445    2.6750302    1.5122760 
H    -6.2147152    1.9115597    0.4523205 
C    -2.7973493    2.1935530   -0.2398273 
N    -4.0628254    0.2942702    0.7257135 
H    -4.4257269    1.2084701   -1.1646024 
H    -4.9602768   -0.2409734    0.6565347 
H    -3.3164926   -0.3400536    0.3513158 
O    -2.3552212    3.0777026    0.7399114 
O    -1.9842022    1.9357480   -1.3364098 
H    -1.1277875    2.4654784   -1.2351742 
