13
Energy =
C    -5.2385782    2.0559665   -0.2803446 
C    -3.9099707    1.3063192   -0.0737847 
H    -5.1532143    2.7675595   -1.1310304 
H    -5.5031590    2.6351382    0.6327426 
H    -6.0602956    1.3428006   -0.5039396 
C    -2.7502907    2.2616443    0.1667568 
N    -4.0588774    0.3443762    1.0294329 
H    -3.6420740    0.7553872   -1.0069124 
H    -4.2812678    0.8561463    1.9181493 
H    -4.8553454   -0.3063280    0.8329650 
O    -2.7136301    3.0615289    1.3049166 
O    -1.7407876    2.3813368   -0.7794703 
H    -1.0649391    3.0551694   -0.4436049 
