13
Energy =
C    -5.2151175    2.3722769    0.6031905 
C    -4.1666373    1.5825002   -0.1923219 
H    -5.2121089    3.4433654    0.3047774 
H    -4.9915904    2.3087859    1.6924313 
H    -6.2312913    1.9597114    0.4288712 
C    -2.7621991    2.1937790   -0.0727037 
N    -4.1937637    0.1911283    0.2794622 
H    -4.4492950    1.6210861   -1.2699315 
H    -5.1255574   -0.2332047    0.0569708 
H    -3.4844289   -0.3741689   -0.2452952 
O    -2.4240906    2.9700571    1.0313505 
O    -1.7933689    1.9667905   -1.0520793 
H    -2.1332407    1.3651612   -1.7870099 
