13
Energy =
C    -5.2920516    1.9663088    0.3196891 
C    -3.9172126    1.4615474   -0.1330544 
H    -5.4862021    2.9836567   -0.0828102 
H    -5.3212569    2.0152553    1.4314256 
H    -6.0935409    1.2818476   -0.0279337 
C    -2.7977815    2.4175594    0.2630825 
N    -3.7106380    0.1217391    0.4356804 
H    -3.8963377    1.4110099   -1.2473773 
H    -4.3698926   -0.5502226   -0.0224473 
H    -2.7454846   -0.2090481    0.1905844 
O    -1.6003805    2.4022841   -0.4425076 
O    -2.9393458    3.2943328    1.3330228 
H    -2.0754253    3.8088986    1.4428379 
