13
Energy =
C    -5.1676327    2.2647191   -0.2726690 
C    -3.9081078    1.4152875   -0.0641286 
H    -4.9957321    3.0312392   -1.0606681 
H    -5.4487136    2.7812682    0.6712550 
H    -6.0199953    1.6257597   -0.5875420 
C    -2.6972839    2.2890166    0.2627496 
N    -4.1836782    0.4339139    0.9963782 
H    -3.6606042    0.8896580   -1.0188994 
H    -4.9244186   -0.2302810    0.6675543 
H    -3.3274357   -0.1511791    1.1569871 
O    -1.7561597    2.5363984   -0.7277030 
O    -2.5254086    2.8717943    1.5172641 
H    -3.2692796    2.6032143    2.1449340 
