13
Energy =
C    -5.2246163    2.2411519    0.4999569 
C    -4.0189568    1.4916080   -0.0934398 
H    -5.4037034    3.1881033   -0.0571520 
H    -5.0460685    2.4968129    1.5675629 
H    -6.1421065    1.6181186    0.4313640 
C    -2.7448153    2.3379405   -0.0721468 
N    -3.8536926    0.1997016    0.5946699 
H    -4.2053192    1.3036507   -1.1798926 
H    -3.9159124    0.3127460    1.6339953 
H    -4.6314231   -0.4461572    0.3175066 
O    -2.3435678    2.9703530   -1.2422283 
O    -2.0201800    2.5728507    1.0965077 
H    -2.3731880    2.0306939    1.8680424 
