13
Energy =
C    -5.1395952    2.1241927    0.5995316 
C    -4.0646369    1.4312252   -0.2400711 
H    -5.2951419    3.1674169    0.2488370 
H    -4.8370250    2.1478982    1.6694368 
H    -6.0992214    1.5708012    0.5147185 
C    -2.7303264    2.1599599   -0.1470650 
N    -3.9771204    0.0288826    0.1955776 
H    -4.3726437    1.4657204   -1.3122110 
H    -3.3271922   -0.4835596   -0.4466806 
H    -3.5272664   -0.0083295    1.1442988 
O    -2.2972944    2.9596467   -1.1971299 
O    -1.9556068    2.0649351    1.0029929 
H    -1.1222091    2.6265672    0.8806967 
