13
Energy =
C    -5.3323274    1.8854294   -0.1718793 
C    -3.8783502    1.3810118   -0.1374757 
H    -5.4480848    2.6803526   -0.9414878 
H    -5.6190507    2.3119328    0.8153364 
H    -6.0285408    1.0563621   -0.4204952 
C    -2.8922707    2.5088711    0.1280959 
N    -3.7578745    0.3067328    0.8606454 
H    -3.5963448    0.9823279   -1.1413309 
H    -3.9939456    0.6794919    1.8127819 
H    -4.4376171   -0.4601156    0.6456134 
O    -2.8773097    3.1654300    1.3550612 
O    -2.0338237    2.9312624   -0.8789222 
H    -1.4587001    3.6814458   -0.5180237 
