13
Energy =
C    -5.3607388    2.0133911    0.2037484 
C    -4.0102678    1.4137260   -0.1982294 
H    -5.6317223    2.8526393   -0.4728175 
H    -5.3199862    2.3946334    1.2480203 
H    -6.1518782    1.2352325    0.1444115 
C    -2.8932469    2.4436489   -0.1257857 
N    -3.7576948    0.2423655    0.6556094 
H    -4.0619980    1.0927346   -1.2668772 
H    -2.8833736   -0.2350980    0.3299224 
H    -3.5659797    0.5607432    1.6377100 
O    -2.4956995    2.9711441    1.0981171 
O    -2.2726923    2.8758104   -1.2895032 
H    -1.5659619    3.5592361   -1.0485580 
