13
Energy =
C    -5.1786981    2.4337750    0.2734427 
C    -4.0963490    1.3989883   -0.0649363 
H    -5.1693252    3.2704947   -0.4589016 
H    -4.9941986    2.8538542    1.2883703 
H    -6.1853910    1.9652838    0.2643941 
C    -2.7020254    2.0331614   -0.1847068 
N    -4.1334166    0.3539322    0.9686407 
H    -4.3348032    0.9573584   -1.0605499 
H    -5.0553971   -0.1431579    0.9316143 
H    -3.4039131   -0.3713830    0.7699034 
O    -2.4423832    3.2764999    0.3827453 
O    -1.6711560    1.3797199   -0.8610457 
H    -1.9599234    0.4746456   -1.1987820 
