13
Energy =
C    -5.2777245    2.3012906    0.6568201 
C    -4.1678191    1.5430692   -0.0929162 
H    -5.4778027    3.2827906    0.1728549 
H    -4.9765424    2.4905922    1.7117902 
H    -6.2233030    1.7169353    0.6589744 
C    -2.8711949    2.3577111   -0.1671190 
N    -3.9560314    0.2378953    0.5507202 
H    -4.4877318    1.3654083   -1.1456048 
H    -3.6444610    0.3753246    1.5436241 
H    -4.8538922   -0.3004716    0.5796877 
O    -1.9884725    2.3533068    0.9073568 
O    -2.5862176    3.1764521   -1.2622428 
H    -3.3173970    3.1631406   -1.9562123 
