13
Energy =
C    -5.3465873    2.1328092    0.6180668 
C    -4.1482179    1.5752059   -0.1545700 
H    -5.6069092    3.1502433    0.2535792 
H    -5.1140043    2.1909661    1.7040225 
H    -6.2256061    1.4670650    0.4812026 
C    -2.9191927    2.4599591    0.0006649 
N    -3.9165871    0.1937695    0.2953137 
H    -4.3920949    1.5737141   -1.2442000 
H    -3.1550519   -0.2308638   -0.2860638 
H    -3.5557426    0.2043326    1.2813550 
O    -2.2255000    2.5043836    1.2052269 
O    -2.5036795    3.2595339   -1.0548887 
H    -1.6848965    3.7803785   -0.7669215 
