13
Energy =
C    -5.2726024    2.1458254   -0.1998771 
C    -3.9694300    1.3559455   -0.0268723 
H    -5.2199761    2.8042261   -1.0940389 
H    -5.4640181    2.7823594    0.6924106 
H    -6.1280904    1.4460248   -0.3172725 
C    -2.7450447    2.2663887    0.1190211 
N    -4.1380007    0.4533165    1.1216171 
H    -3.8143256    0.7514391   -0.9512345 
H    -3.2904781   -0.1556270    1.2204088 
H    -4.1997632    1.0160554    2.0059353 
O    -2.8754355    3.5181329    0.7084236 
O    -1.4784040    1.8425984   -0.2811754 
H    -1.4857712    0.8984434   -0.6363854 
