13
Energy =
C    -4.9820227    1.8151917   -0.7459585 
C    -3.7412125    1.2267340   -0.0525619 
H    -4.6764493    2.5245150   -1.5461101 
H    -5.6103245    2.3671524   -0.0112897 
H    -5.5905846    1.0093535   -1.2080692 
C    -2.8547113    2.3150706    0.5366963 
N    -4.1636244    0.2588162    0.9714157 
H    -3.1106429    0.7031198   -0.8090106 
H    -4.7463315    0.7414329    1.6978986 
H    -4.7539061   -0.4884778    0.5361690 
O    -3.3323556    3.1495778    1.5429211 
O    -1.5756151    2.5208885    0.0361506 
H    -1.1457835    3.2751437    0.5554320 
