13
Energy =
C    -5.2252372    2.0135539   -0.4088344 
C    -3.9224116    1.3567864    0.0561724 
H    -5.0871652    2.5019409   -1.3973443 
H    -5.5465190    2.7842170    0.3264828 
H    -6.0263234    1.2484419   -0.4919349 
C    -2.7949664    2.3719380    0.1820657 
N    -4.1915749    0.6530656    1.3195078 
H    -3.5942582    0.6207971   -0.7168537 
H    -3.3306720    0.1295051    1.6085231 
H    -4.3657724    1.3596660    2.0760047 
O    -1.6432579    2.2313733   -0.5809722 
O    -2.9060100    3.4478064    1.0534809 
H    -2.0592419    3.9990730    0.9935214 
