13
Energy =
C    -5.0086123    2.6079670    0.0128338 
C    -3.9634889    1.4921379   -0.1647931 
H    -4.5876201    3.5892331   -0.2990592 
H    -5.3150076    2.6893929    1.0798211 
H    -5.9098166    2.4019751   -0.6029437 
C    -2.6764239    1.7710401    0.6015112 
N    -4.5555831    0.2045493    0.2294294 
H    -3.6589975    1.4445547   -1.2380757 
H    -4.8733341    0.2479051    1.2289467 
H    -5.4018241    0.0064558   -0.3561292 
O    -2.7138364    2.3119778    1.8812186 
O    -1.4526220    1.4202842    0.0512875 
H    -1.3008834    0.4390370    0.2347488 
