13
Energy =
C    -5.1925015    2.2307147   -0.1535870 
C    -3.9122796    1.3905933   -0.0824091 
H    -5.0629774    3.0868075   -0.8525173 
H    -5.4512457    2.6271038    0.8529147 
H    -6.0429344    1.6125009   -0.5119509 
C    -2.7061515    2.2521213    0.2948878 
N    -4.1380897    0.2954386    0.8746098 
H    -3.6865717    0.9772429   -1.0967979 
H    -4.8878752   -0.3391466    0.5078675 
H    -3.2730059   -0.2960490    0.9353737 
O    -1.8485746    2.6885506   -0.7060452 
O    -2.4705952    2.6538233    1.6079316 
H    -3.1570175    2.2516079    2.2296045 
