13
Energy =
C    -5.3789083    2.0836515    0.2891794 
C    -4.0169475    1.4466923   -0.0377697 
H    -5.6011261    2.9068175   -0.4253097 
H    -5.3695054    2.5112147    1.3168365 
H    -6.1938983    1.3323462    0.2177500 
C    -2.8940401    2.4732251   -0.0065477 
N    -3.7615246    0.3379213    0.8948410 
H    -4.0279097    1.0531406   -1.0827909 
H    -3.6750268    0.7166694    1.8705083 
H    -4.5638162   -0.3343257    0.8868671 
O    -2.2647027    2.8543572   -1.1863215 
O    -2.5201168    3.0734041    1.1912015 
H    -1.7652974    3.7214596    1.0075517 
