13
Energy =
C    -5.1398905    2.1875065   -0.5060864 
C    -3.9414439    1.3534394   -0.0211691 
H    -4.8452237    2.8221959   -1.3702365 
H    -5.4966546    2.8557692    0.3096727 
H    -5.9738458    1.5269115   -0.8243200 
C    -2.7621364    2.2347165    0.3692952 
N    -4.3636465    0.4920098    1.0935455 
H    -3.5770187    0.7111764   -0.8571307 
H    -4.6805460    1.0862120    1.8981268 
H    -5.1724366   -0.1045928    0.8002260 
O    -1.5482740    2.1166768   -0.2984930 
O    -2.8989501    3.1963181    1.3649270 
H    -2.0092332    3.6622856    1.4858517 
