13
Energy =
C    -5.0929590    2.2885500    0.5943892 
C    -4.0982111    1.3985609   -0.1697793 
H    -5.1821341    3.2807909    0.0992086 
H    -4.7428497    2.4527171    1.6378400 
H    -6.0998875    1.8206581    0.6197167 
C    -2.7302204    2.0548586   -0.2773297 
N    -4.0165253    0.0831650    0.4835747 
H    -4.4490645    1.2635361   -1.2209793 
H    -3.6188621    0.1961819    1.4487745 
H    -4.9721558   -0.3327555    0.5803992 
O    -2.2774964    2.5273621   -1.5037837 
O    -1.9460692    2.2406184    0.8558326 
H    -1.0821649    2.6889705    0.5800148 
