13
Energy =
C    -5.2301099    2.2650547    0.3105771 
C    -4.0446986    1.4025745   -0.1343641 
H    -5.3980126    3.0992487   -0.4042636 
H    -5.0425848    2.6956379    1.3190407 
H    -6.1505627    1.6445665    0.3613007 
C    -2.7449510    2.2092400   -0.2350689 
N    -3.9304429    0.2713408    0.7968330 
H    -4.2780073    1.0135459   -1.1521801 
H    -3.1975980   -0.3920848    0.4485357 
H    -3.5966272    0.6151504    1.7309954 
O    -2.4887089    3.2226373    0.6811776 
O    -1.7760783    1.9100245   -1.1924950 
H    -2.0371278    1.1227107   -1.7671232 
