13
Energy =
C    -5.1429855    2.6203351    0.0884242 
C    -4.1769800    1.4375794   -0.0674120 
H    -4.9659496    3.3785542   -0.7069042 
H    -5.0078007    3.1067913    1.0795204 
H    -6.1964639    2.2759146    0.0098946 
C    -2.7190001    1.9010172   -0.0910371 
N    -4.4338593    0.4859936    1.0240303 
H    -4.3599038    0.9463236   -1.0543350 
H    -5.4117875    0.1187555    0.9390866 
H    -3.8058726   -0.3463556    0.9103460 
O    -2.0413966    1.9395756   -1.3029223 
O    -2.0580218    2.3149036    1.0645556 
H    -2.6574986    2.2248605    1.8720472 
