13
Energy =
C    -5.3549347    2.0806117    0.3746089 
C    -4.0419896    1.5426503   -0.2023716 
H    -5.5579478    3.1082038    0.0039750 
H    -5.3124141    2.1001949    1.4864066 
H    -6.1970094    1.4201969    0.0718957 
C    -2.8480737    2.3969457    0.2095497 
N    -3.9068496    0.1372256    0.2110685 
H    -4.0898732    1.5932318   -1.3168492 
H    -3.0506199   -0.2715788   -0.2347914 
H    -3.7416673    0.0901529    1.2471673 
O    -2.3172253    2.2973981    1.4892219 
O    -2.3204108    3.3286860   -0.6732971 
H    -2.9034346    4.1526480   -0.6684069 
