13
Energy =
C    -5.3598579    2.0796310    0.4895029 
C    -4.0646936    1.5364574   -0.1417696 
H    -5.6209385    3.0727002    0.0628911 
H    -5.2386807    2.1922488    1.5902303 
H    -6.2082369    1.3882334    0.2962623 
C    -2.8894401    2.4884409    0.0511102 
N    -3.7795007    0.2032813    0.4089570 
H    -4.1939314    1.4488090   -1.2469536 
H    -3.6394384    0.2685279    1.4468921 
H    -4.5915160   -0.4363313    0.2418538 
O    -2.2888891    2.6282949    1.2968714 
O    -2.4759097    3.3051870   -0.9946242 
H    -3.1112270    4.0848045   -1.0757777 
