13
Energy =
C    -5.1783541    2.1023988   -0.4415468 
C    -3.9205929    1.3615962    0.0469955 
H    -4.9610408    2.6576327   -1.3820348 
H    -5.5314842    2.8336851    0.3177208 
H    -5.9980055    1.3808511   -0.6485195 
C    -2.7362411    2.3051641    0.2762821 
N    -4.2497563    0.5702527    1.2440577 
H    -3.5756601    0.6679516   -0.7586788 
H    -4.7833192    1.1424749    1.9403535 
H    -4.8729822   -0.2273477    0.9726444 
O    -1.6918158    2.3082700   -0.6402022 
O    -2.7023763    3.2173998    1.3314194 
H    -3.4967814    3.1075855    1.9400141 
