13
Energy =
C    -5.0991237    2.3248736   -0.0671236 
C    -3.9997927    1.2615036    0.0044876 
H    -4.9562485    2.9768920   -0.9556982 
H    -5.0830611    2.9572973    0.8478463 
H    -6.0934597    1.8340773   -0.1368764 
C    -2.6164885    1.8882659    0.0939102 
N    -4.2949380    0.3738267    1.1399880 
H    -4.0091095    0.6694980   -0.9423905 
H    -3.6060448   -0.4163642    1.1441893 
H    -4.1460261    0.8943369    2.0392907 
O    -2.2649780    2.6756995    1.1850898 
O    -1.6986600    1.6894903   -0.9281836 
H    -0.8422693    2.1779099   -0.6985411 
