13
Energy =
C    -5.2272078    2.2954202   -0.1443672 
C    -3.9746690    1.4036631   -0.0577232 
H    -5.0969445    3.0683236   -0.9353160 
H    -5.4200652    2.8154119    0.8188854 
H    -6.1208634    1.6872150   -0.4043076 
C    -2.6957507    2.2018414    0.2097952 
N    -4.1923212    0.3475185    0.9437747 
H    -3.8035692    0.9262003   -1.0538867 
H    -4.5529546    0.7499391    1.8409507 
H    -4.9268443   -0.3135057    0.5954715 
O    -1.7502620    2.3187296   -0.8016197 
O    -2.4682991    2.8619683    1.4177668 
H    -3.2180189    2.7059397    2.0710324 
