13
Energy =
C    -5.2016747    2.1516874    0.8378311 
C    -4.1706647    1.7449893   -0.2321978 
H    -5.4477696    3.2331501    0.7441704 
H    -4.7945482    1.9851067    1.8597403 
H    -6.1425784    1.5724006    0.7236611 
C    -2.8666862    2.5491881   -0.1517656 
N    -3.9221234    0.2984876   -0.1329165 
H    -4.5901555    1.9757050   -1.2396068 
H    -3.5625194    0.0613459    0.8239175 
H    -4.8179310   -0.2280174   -0.2680479 
O    -2.7597872    3.6255249    0.7224949 
O    -1.7853901    2.2520003   -0.9796561 
H    -1.9682915    1.4310955   -1.5393604 
