13
Energy =
C    -5.0634192    1.8828733   -0.6709024 
C    -3.9253384    1.3323771    0.2092206 
H    -4.6706264    2.1935572   -1.6649604 
H    -5.5296289    2.7738415   -0.1953905 
H    -5.8455829    1.1112150   -0.8337554 
C    -2.7945314    2.3473330    0.4293408 
N    -4.4975506    0.8552683    1.4795314 
H    -3.4376919    0.4794053   -0.3198041 
H    -5.0038436    1.6376963    1.9621167 
H    -5.2013599    0.1006006    1.2939145 
O    -2.6328600    3.4073536   -0.4553910 
O    -1.8586196    2.1863048    1.4495350 
H    -2.0853171    1.3887689    2.0259011 
