13
Energy =
C    -5.0702347    2.3899269    0.7026222 
C    -4.1643709    1.4668479   -0.1209770 
H    -5.0810079    3.4164660    0.2727832 
H    -4.7120761    2.4465508    1.7540109 
H    -6.1119593    2.0043670    0.7092432 
C    -2.7564080    2.0503620   -0.2617087 
N    -4.1571242    0.1427044    0.5206837 
H    -4.5699186    1.3886154   -1.1598149 
H    -5.1259248   -0.2576475    0.4995803 
H    -3.5689190   -0.5131336   -0.0494817 
O    -2.4168946    2.7206682   -1.4293220 
O    -1.8201506    1.9740165    0.7676569 
H    -2.1918014    1.4491145    1.5458533 
