13
Energy =
C    -5.1630742    2.2592390   -0.3324410 
C    -3.9443128    1.3958145    0.0463467 
H    -4.9008687    2.9652702   -1.1526058 
H    -5.5011964    2.8619494    0.5390048 
H    -6.0057579    1.6239575   -0.6790419 
C    -2.7294592    2.2318825    0.4717919 
N    -4.3489097    0.4365562    1.0872231 
H    -3.5995949    0.8380022   -0.8564035 
H    -4.7257185    0.9522218    1.9198183 
H    -5.1232599   -0.1722507    0.7282411 
O    -2.6032535    3.5428892    0.0270469 
O    -1.6871777    1.6824152    1.2171060 
H    -1.8844566    0.7253281    1.4702046 
