13
Energy =
C    -5.0848940    1.7267572   -0.7555361 
C    -3.7748619    1.3382498   -0.0495828 
H    -4.8673989    2.3060761   -1.6791543 
H    -5.7096295    2.3596057   -0.0855942 
H    -5.6605256    0.8204075   -1.0389122 
C    -2.9463184    2.5632092    0.3168095 
N    -4.0783884    0.5207175    1.1342069 
H    -3.1491365    0.7383390   -0.7506921 
H    -4.6666084    1.0719108    1.8051949 
H    -4.6240489   -0.3274232    0.8528537 
O    -1.6534223    2.7088435   -0.1753123 
O    -3.4874774    3.5647358    1.1175553 
H    -2.7867797    4.2801195    1.2610615 
