24
UFF-Energy = 0.0658663
C     0.9735601    2.5735151   -0.5477391 
C    -0.2693830    2.5561090    0.0037356 
C    -0.8662772    1.3720042    0.2694021 
C     1.6106576    1.4091608   -0.8311064 
C     1.0069396    0.2169821   -0.5715469 
C    -0.2344145    0.2044848   -0.0124765 
O    -0.9523328    3.7372278    0.3100410 
H    -0.4411889    4.5827351    0.0808346 
H    -0.7278064   -0.7379920    0.2188730 
H     2.6067675    1.4385124   -1.2665072 
H     1.4613483    3.5186171   -0.7608710 
H    -1.8558858    1.3721570    0.7141123 
C     1.7278011   -1.0814629   -0.8594790 
C     2.6516163   -1.4940897    0.3006980 
H     2.3341796   -0.9773417   -1.7871179 
H     0.9970066   -1.8973551   -1.0639764 
C     1.8708544   -1.7518214    1.5831672 
O     0.9173100   -2.7603653    1.6334911 
O     2.0639955   -0.9459946    2.6960498 
H     1.5533476   -0.0843904    2.5681831 
N     3.4324470   -2.6685670   -0.1248075 
H     3.3538265   -0.6560794    0.5206463 
H     4.1462788   -2.8866013    0.6114810 
H     2.8042883   -3.5087116   -0.1751870 
