24
UFF-Energy = 0.0601951
C     0.9426040    2.2569989    0.7963596 
C    -0.1102583    2.5972495    0.0063470 
C    -0.4732625    1.7831841   -1.0106223 
C     1.6225788    1.1043055    0.5678911 
C     1.2530337    0.2804429   -0.4517349 
C     0.2045872    0.6311712   -1.2455472 
O    -0.8339125    3.7755433    0.2157280 
H    -0.4919125    4.3421986    0.9843893 
H    -0.0969851   -0.0052311   -2.0736920 
H     2.4716538    0.8498591    1.2001139 
H     1.2453772    2.9089661    1.6086613 
H    -1.3115200    2.0692859   -1.6366662 
C     2.0243856   -0.9919163   -0.7304157 
C     3.1588381   -0.7576138   -1.7572772 
H     1.3243616   -1.7665247   -1.1150800 
H     2.4465876   -1.4073650    0.2134130 
C     4.2516670    0.1699217   -1.2191801 
O     4.6535141    0.0661587    0.1094894 
O     4.8799569    1.1121500   -2.0333071 
H     4.6092348    1.0132000   -3.0004628 
N     3.7272869   -2.0494311   -2.1722798 
H     2.7225212   -0.2614659   -2.6537555 
H     4.1085131   -2.5561403   -1.3367355 
H     2.9827394   -2.6503500   -2.5975835 
