24
UFF-Energy = -0.0829046
C     1.1724983    2.9733276   -0.8508830 
C     0.2471916    2.8264056   -1.8363533 
C    -0.1782041    1.5880389   -2.1745755 
C     1.6627116    1.8825998   -0.2076692 
C     1.2266062    0.6361994   -0.5384821 
C     0.3072666    0.4949314   -1.5334605 
O    -0.2785699    3.9286069   -2.5171668 
H     0.0956775    4.8208811   -2.2135739 
H    -0.0369727   -0.4933082   -1.8314030 
H     2.4170576    2.0077748    0.5649474 
H     1.5262542    3.9626087   -0.5803022 
H    -0.9082413    1.4827906   -2.9700656 
C     1.7889659   -0.5837526    0.1650039 
C     3.1353251   -1.0416423   -0.4371311 
H     1.0607015   -1.4253865    0.1114058 
H     1.9187976   -0.3685780    1.2479114 
C     2.9846012   -1.3958271   -1.9196463 
O     2.0649954   -2.3662682   -2.2849283 
O     3.7040346   -0.7702578   -2.9285343 
H     4.3931512   -0.1917273   -2.4694656 
N     4.1598954   -0.0149307   -0.1844102 
H     3.4436600   -1.9870887    0.0651138 
H     4.3372998    0.0405557    0.8522889 
H     5.0546766   -0.3514946   -0.6003187 
