24
UFF-Energy = 0.0697891
C     1.6458177    2.1166186   -1.3008730 
C     0.3082035    2.3141725   -1.3377283 
C    -0.5318779    1.3340002   -0.9344240 
C     2.1488234    0.9286706   -0.8780101 
C     1.3088427   -0.0705514   -0.4831460 
C    -0.0368704    0.1452760   -0.5050980 
O    -0.2041274    3.5289395   -1.7824846 
H    -0.3491232    3.5120594   -2.7855163 
H    -0.7237799   -0.6259335   -0.1672765 
H     3.2274129    0.7923656   -0.8360579 
H     2.3076283    2.9220962   -1.6003568 
H    -1.6018258    1.5129055   -0.9476621 
C     1.8640347   -1.3960053    0.0068494 
C     2.2867725   -1.3487295    1.4899771 
H     2.7284719   -1.6928633   -0.6271781 
H     1.1016968   -2.1954871   -0.1218085 
C     3.4931999   -0.4288894    1.6879102 
O     3.3282837    0.8541468    2.1900680 
O     4.7726875   -0.8261580    1.2981691 
H     4.8034835   -1.7813544    0.9777075 
N     1.1219998   -0.9653302    2.3097707 
H     2.6291893   -2.3635273    1.7960510 
H     0.5145447   -1.8020165    2.4691588 
H     1.4382307   -0.6312820    3.2531126 
