24
UFF-Energy = 0.0774887
C    -0.2940486    1.9708261    0.5056577 
C    -1.0457464    2.3448666   -0.5546517 
C    -0.7307711    1.9078021   -1.7952064 
C     0.7714218    1.1488313    0.3301477 
C     1.0924622    0.6968337   -0.9145040 
C     0.3346645    1.0859537   -1.9787593 
O    -2.1374102    3.1875200   -0.3727635 
H    -2.9848294    2.6500486   -0.2250743 
H     0.5777998    0.7425476   -2.9803406 
H     1.3646034    0.8603394    1.1945330 
H    -0.5510160    2.3359219    1.4944537 
H    -1.3364225    2.2276456   -2.6368591 
C     2.2745391   -0.2327939   -1.1132633 
C     1.9285439   -1.7324194   -0.9073680 
H     3.0903654    0.0554594   -0.4101135 
H     2.7059835   -0.0919215   -2.1281814 
C     1.5864809   -2.0696872    0.5498602 
O     2.3155728   -1.4718553    1.5711164 
O     0.6346133   -3.0286957    0.8974875 
H     0.2755211   -3.5162126    0.0910532 
N     0.8904831   -2.1627556   -1.8646971 
H     2.8523158   -2.3213472   -1.1079163 
H    -0.0172356   -1.6828819   -1.6533446 
H     1.1743822   -1.9178767   -2.8419213 
