24
UFF-Energy = 0.0649315
C     1.2791570    2.4878613   -0.8490973 
C    -0.0737697    2.4600209   -0.8456498 
C    -0.7262229    1.2826797   -0.7099889 
C     1.9856662    1.3348445   -0.7298966 
C     1.3358090    0.1438019   -0.6093098 
C    -0.0267898    0.1257580   -0.5906930 
O    -0.7943396    3.6434591   -0.9721670 
H    -0.9717161    3.8536958   -1.9480298 
H    -0.5634436   -0.8127186   -0.4716101 
H     3.0720310    1.3723635   -0.7265288 
H     1.7889244    3.4409606   -0.9403851 
H    -1.8109209    1.2751313   -0.6898306 
C     2.1220324   -1.1401986   -0.4546688 
C     2.5219617   -1.3946132    1.0174587 
H     3.0363470   -1.0871993   -1.0859350 
H     1.5314422   -2.0043436   -0.8361016 
C     1.3078459   -1.5687191    1.9184176 
O     1.1387060   -0.7546258    3.0334218 
O     0.3401176   -2.5249290    1.6243870 
H    -0.3599339   -2.5079092    2.3542590 
N     3.4108346   -2.5655887    1.0969665 
H     3.0724961   -0.5068131    1.4055483 
H     2.9220265   -3.4088742    0.7100602 
H     4.2692492   -2.4010851    0.5208622 
