24
UFF-Energy = 1.29535
C     0.7925626    2.4553075   -0.2877421 
C    -0.4159481    2.1402016    0.2504304 
C    -0.7036141    0.8481614    0.5400449 
C     1.6939714    1.4730310   -0.5300660 
C     1.4094129    0.1757318   -0.2565729 
C     0.2044845   -0.1335967    0.2945554 
O    -1.3774945    3.1197553    0.5173283 
H    -1.0854509    4.0618387    0.2796446 
H    -0.0410222   -1.1623929    0.5445336 
H     2.7681193    1.6345266   -0.9974563 
H     1.0421893    3.4840413   -0.5226250 
H    -1.6687594    0.6121844    0.9751927 
C     2.4648511   -0.8977330   -0.5026912 
C     3.3006576   -0.6770907   -1.7999274 
H     1.9633878   -1.8887388   -0.5595933 
H     3.1497955   -0.9433512    0.3734491 
C     4.2732519    0.5275421   -1.6786865 
O     3.7654935    1.8011444   -1.4334277 
O     5.6516711    0.4032578   -1.8070471 
H     5.9341805   -0.5633986   -1.7924794 
N     3.9861624   -1.9394404   -2.1446318 
H     2.6012815   -0.4042120   -2.6276768 
H     3.2848841   -2.7140548   -2.2342250 
H     4.4002022   -1.8495737   -3.1048406 
