24
UFF-Energy = 0.0855356
C     1.9086705    2.6761390   -0.3124331 
C     0.8695219    2.9847366    0.4972434 
C    -0.0523924    2.0434837    0.8039762 
C     2.0340741    1.4205834   -0.8130289 
C     1.1100967    0.4670951   -0.5079519 
C     0.0662310    0.7857000    0.3072313 
O     0.7444557    4.2724656    1.0086009 
H     1.2416520    4.3599256    1.8880955 
H    -0.6805266    0.0375636    0.5624298 
H     2.8750339    1.1862121   -1.4600911 
H     2.6339442    3.4441674   -0.5582798 
H    -0.8862117    2.3067501    1.4464754 
C     1.2507534   -0.9391432   -1.0472077 
C     1.8504260   -1.9047895    0.0042266 
H     1.8701309   -0.9448575   -1.9721739 
H     0.2440133   -1.3035184   -1.3584856 
C     1.7515563   -3.3591967   -0.4518356 
O     0.7986855   -4.1851582    0.1325871 
O     2.5348371   -3.8695803   -1.4877571 
H     3.1971685   -3.1878615   -1.8213317 
N     3.2370706   -1.5250874    0.3381363 
H     1.2312109   -1.8600869    0.9315598 
H     3.7783511   -1.2825047   -0.5245662 
H     3.2262930   -0.6670698    0.9392962 
