24
UFF-Energy = 0.0781423
C     1.5609137    2.6059289    0.2895270 
C     0.2579193    2.8370734   -0.0225010 
C    -0.4995171    1.8314239   -0.5159801 
C     2.0981155    1.3734838    0.1053294 
C     1.3371336    0.3603432   -0.3939011 
C     0.0321414    0.5966713   -0.7026271 
O    -0.3266978    4.0953252    0.1536864 
H     0.3038007    4.7948053    0.5306232 
H    -0.5965025   -0.1966091   -1.0987534 
H     3.1413167    1.2042391    0.3616656 
H     2.1760257    3.4058860    0.6873564 
H    -1.5379649    2.0293088   -0.7586799 
C     1.9425514   -1.0108820   -0.6046108 
C     2.8986836   -1.0488243   -1.8233882 
H     1.1549737   -1.7889806   -0.7310075 
H     2.4968599   -1.2980318    0.3184559 
C     3.6993570   -2.3386069   -1.8288788 
O     5.0870661   -2.2988164   -1.8282849 
O     3.0565214   -3.5689525   -1.8167950 
H     2.8322943   -3.8089894   -2.7716640 
N     2.1609219   -0.8947246   -3.0967104 
H     3.6544327   -0.2344070   -1.7159936 
H     1.1387955   -0.7240452   -2.9535172 
H     2.5279380   -0.0604250   -3.6135079 
