24
UFF-Energy = 0.0661771
C     2.0263868    2.9580047   -1.0359058 
C     1.0154980    3.1319827   -1.9180506 
C     0.1020812    2.1515335   -2.1027904 
C     2.1295232    1.7986729   -0.3358701 
C     1.2122046    0.8072175   -0.5162800 
C     0.2005866    0.9883787   -1.4102960 
O     0.9129129    4.3217377   -2.6323113 
H     1.4430529    4.2669316   -3.4956361 
H    -0.5341673    0.2050024   -1.5793199 
H     2.9615647    1.6610656    0.3545978 
H     2.7509199    3.7545260   -0.9027841 
H    -0.7054658    2.3045033   -2.8109179 
C     1.3428725   -0.5000673    0.2356383 
C     2.3142309   -1.4691408   -0.4679271 
H     0.3474428   -0.9931567    0.3181182 
H     1.6655274   -0.3098460    1.2819996 
C     3.7435100   -0.9274597   -0.5360186 
O     4.3372067   -0.7371188   -1.7757759 
O     4.4547256   -0.5609684    0.6087142 
H     3.9741414   -0.8156956    1.4568194 
N     2.2308147   -2.7839347    0.1914973 
H     1.9810779   -1.5835170   -1.5275105 
H     2.7939947   -3.4761886   -0.3594125 
H     2.6623619   -2.7450681    1.1448121 
