24
UFF-Energy = 0.0855516
C     1.9780111    2.5135073   -0.4384398 
C     0.7140855    2.9173558   -0.1725935 
C    -0.2873605    2.0099462   -0.1107389 
C     2.2437761    1.1998234   -0.6540178 
C     1.2377679    0.2826079   -0.6100129 
C    -0.0302726    0.6952843   -0.3286698 
O     0.4466394    4.2647681    0.0489503 
H     0.2436907    4.7392142   -0.8239532 
H    -0.8431050   -0.0253679   -0.2619802 
H     3.2653990    0.8886568   -0.8577318 
H     2.7733261    3.2504628   -0.4681737 
H    -1.2932233    2.3426207    0.1235122 
C     1.5365636   -1.1860398   -0.8223013 
C     1.9239094   -1.8912993    0.4991377 
H     2.3675350   -1.2873554   -1.5559149 
H     0.6563544   -1.6988206   -1.2744062 
C     0.7627755   -1.8563525    1.5026876 
O    -0.3419879   -2.6743998    1.2952783 
O     0.7441024   -0.9714197    2.5812578 
H     1.5581331   -0.3763869    2.6062686 
N     2.4092206   -3.2676350    0.2304549 
H     2.7698886   -1.3323284    0.9570709 
H     1.7936743   -3.9883468    0.6828215 
H     2.4116066   -3.5054442   -0.7893834 
