24
UFF-Energy = 0.0848995
C     2.1890023    2.5478056    0.5015738 
C     0.9557658    3.0301881    0.2239117 
C     0.0671062    2.2671586   -0.4528794 
C     2.5359944    1.2953643    0.1096215 
C     1.6456586    0.5204512   -0.5709800 
C     0.4066107    1.0137374   -0.8482521 
O     0.6035369    4.3141585    0.6278102 
H     0.2064393    4.3010291    1.5607789 
H    -0.3172646    0.4102647   -1.3905307 
H     3.5291758    0.9206169    0.3429993 
H     2.8945259    3.1750249    1.0355366 
H    -0.9150183    2.6696579   -0.6778732 
C     2.0185564   -0.8815525   -1.0000308 
C     1.4148347   -1.9648816   -0.0687144 
H     3.1249364   -0.9997364   -1.0499968 
H     1.6566085   -1.0408787   -2.0418384 
C     1.6107051   -3.3806783   -0.6173762 
O     2.3950407   -3.5953428   -1.7466052 
O     1.0022517   -4.4775890   -0.0084654 
H     0.5401045   -4.2090558    0.8491465 
N     1.9696923   -1.8482094    1.2911663 
H     0.3114729   -1.8203245   -0.0222638 
H     3.0172373   -1.8509714    1.2563053 
H     1.6672713   -0.9437487    1.7237403 
