24
UFF-Energy = 0.0542415
C     2.0630340    2.7476793    0.4896170 
C     1.1843054    3.3886699   -0.3130101 
C     0.3816891    2.6687659   -1.1405291 
C     2.1506693    1.3943580    0.4712024 
C     1.3537887    0.6651724   -0.3603227 
C     0.4620881    1.3142477   -1.1609050 
O     1.1243197    4.7847635   -0.2643162 
H     0.4572835    5.1945999   -0.9092383 
H    -0.1883418    0.7541047   -1.8284618 
H     2.8616856    0.9028688    1.1293807 
H     2.6967546    3.3318428    1.1479482 
H    -0.3251468    3.1747392   -1.7888892 
C     1.4474110   -0.8504362   -0.3873566 
C     2.2913681   -1.4053306   -1.5646345 
H     0.4200163   -1.2760242   -0.4465243 
H     1.8729334   -1.2281467    0.5687260 
C     1.6935557   -1.0459982   -2.9194043 
O     2.0994536    0.0924468   -3.6091665 
O     0.6683777   -1.8221975   -3.4437872 
H     0.3968227   -1.4436145   -4.3424503 
N     3.7297403   -1.0665277   -1.4281849 
H     2.2110181   -2.5155077   -1.5247458 
H     4.0870577   -0.5660494   -2.2784104 
H     3.9162578   -0.4261351   -0.6245492 
