24
UFF-Energy = 0.0905757
C     1.3189708    2.7087287   -0.0109710 
C     0.0983651    2.8558663   -0.5744917 
C    -0.5422842    1.7827450   -1.0914934 
C     1.9066490    1.4859330    0.0327185 
C     1.2711644    0.3997819   -0.4892728 
C     0.0402066    0.5571648   -1.0540516 
O    -0.5012626    4.1102651   -0.6167135 
H    -0.2304234    4.6037033   -1.4607919 
H    -0.4850523   -0.2910929   -1.4837752 
H     2.8950083    1.3820742    0.4718849 
H     1.8201796    3.5785694    0.3993810 
H    -1.5223025    1.9143109   -1.5380624 
C     1.9377480   -0.9632945   -0.4661086 
C     3.1097643   -1.0742540   -1.4651861 
H     1.1955685   -1.7624823   -0.6858408 
H     2.3089245   -1.1679758    0.5621000 
C     2.7000278   -0.6551423   -2.8752557 
O     2.9292285    0.6343310   -3.3380177 
O     2.0455290   -1.5590783   -3.7017245 
H     1.0815066   -1.6291283   -3.4145964 
N     4.2611921   -0.3117902   -0.9414544 
H     3.3913854   -2.1497082   -1.5603339 
H     4.7529643   -0.8844154   -0.2156599 
H     4.9580361   -0.1470394   -1.7096590 
