24
UFF-Energy = 0.0822039
C     1.8184002    2.5977977    0.5405598 
C     0.4935523    2.8052005    0.7170620 
C    -0.4001512    1.8962470    0.2650861 
C     2.2555807    1.4766263   -0.0871875 
C     1.3623254    0.5546884   -0.5453020 
C     0.0295136    0.7709995   -0.3604430 
O     0.0495457    3.9562290    1.3597696 
H    -0.0108382    3.8026997    2.3607590 
H    -0.6979118    0.0390564   -0.7017268 
H     3.3233174    1.3139891   -0.2034556 
H     2.5227899    3.3341542    0.9115513 
H    -1.4600240    2.0741304    0.4128096 
C     1.8444735   -0.7141659   -1.2226280 
C     2.0748375   -1.8672062   -0.2257409 
H     2.7790945   -0.5124741   -1.7911511 
H     1.0934149   -1.0399547   -1.9760229 
C     3.2195957   -1.5649775    0.7363910 
O     3.0089199   -0.8330621    1.8974806 
O     4.5111356   -1.9660266    0.4228029 
H     4.9024599   -1.3326628   -0.2576056 
N     0.7964240   -2.1795828    0.4491303 
H     2.4201497   -2.7570545   -0.8035396 
H     0.4020412   -3.0693593    0.0643304 
H     0.9391034   -2.3338387    1.4778123 
