24
UFF-Energy = 0.0658271
C     2.7541834    2.2469507   -0.0016614 
C     1.6359110    3.0073894    0.1425818 
C     0.4193639    2.4512772   -0.0572298 
C     2.6498771    0.9388890   -0.3479161 
C     1.4260941    0.3817088   -0.5610144 
C     0.3093120    1.1449269   -0.4065327 
O     1.7091879    4.3595278    0.4945797 
H     2.6534873    4.6969840    0.6459308 
H    -0.6787518    0.7129934   -0.5493360 
H     3.5520568    0.3414329   -0.4505121 
H     3.7336921    2.6824881    0.1628269 
H    -0.4654315    3.0645752    0.0722424 
C     1.3065961   -1.0831676   -0.9214339 
C     1.2529378   -1.9798462    0.3323998 
H     2.1702641   -1.3796919   -1.5570082 
H     0.4025467   -1.2561519   -1.5480225 
C     0.0161918   -1.6837292    1.1825189 
O     0.1662821   -1.0160714    2.3913070 
O    -1.2658584   -2.0372660    0.7630890 
H    -1.2293230   -2.5637788   -0.0979924 
N     1.2950473   -3.3879822   -0.1005979 
H     2.1357222   -1.7590973    0.9796876 
H     2.2337268   -3.5932197   -0.5183540 
H     1.2170628   -4.0118821    0.7398288 
