24
UFF-Energy = 0.09266
C     1.6500577    2.6270167    0.6260165 
C     0.3279816    2.8850795    0.7414662 
C    -0.5767377    2.0251247    0.2215747 
C     2.0732614    1.5019301   -0.0062742 
C     1.1695551    0.6208510   -0.5209383 
C    -0.1616956    0.8963917   -0.4081690 
O    -0.1010542    4.0397462    1.3874893 
H    -0.2326193    3.8648236    2.3777360 
H    -0.9041755    0.2183258   -0.8203674 
H     3.1407190    1.3025831   -0.0777199 
H     2.3635517    3.3280083    1.0468175 
H    -1.6343310    2.2499804    0.3113767 
C     1.6326946   -0.6379097   -1.2361537 
C     2.1530052   -1.7648791   -0.2998850 
H     2.4309948   -0.3656956   -1.9632733 
H     0.8042463   -1.0530355   -1.8517024 
C     3.4919102   -1.4227088    0.3377239 
O     4.6660450   -1.8807550   -0.2433862 
O     3.5783919   -0.5780876    1.4372906 
H     3.5308111   -1.1472330    2.2709052 
N     1.1503238   -2.1699322    0.7114689 
H     2.3802237   -2.6399080   -0.9538118 
H     0.2665663   -1.6156558    0.6481683 
H     0.8849959   -3.1727479    0.5685434 
