24
UFF-Energy = 0.0548292
C     1.4372320    2.6639495    0.5135390 
C     0.2092752    2.8759656   -0.0300546 
C    -0.4231853    1.8647486   -0.6673838 
C     2.0226074    1.4424935    0.4210252 
C     1.3830420    0.4214327   -0.2143573 
C     0.1585071    0.6425202   -0.7660284 
O    -0.4234141    4.1206486    0.0497261 
H     0.1199867    4.8331805    0.5251154 
H    -0.3624064   -0.1544064   -1.2909568 
H     3.0135186    1.2895979    0.8469541 
H     1.9554464    3.4726667    1.0175686 
H    -1.3998503    2.0493613   -1.1015864 
C     2.0436869   -0.9350188   -0.3462537 
C     2.8923146   -1.0383752   -1.6377557 
H     1.2588587   -1.7242683   -0.3532543 
H     2.6850599   -1.1440055    0.5407240 
C     4.0648388   -0.0517025   -1.6255096 
O     4.8313314    0.0885009   -0.4738974 
O     4.4178526    0.6851986   -2.7544085 
H     3.8687833    0.4353161   -3.5632704 
N     3.3368804   -2.4352589   -1.8598155 
H     2.2405033   -0.7500628   -2.4930146 
H     4.3845350   -2.5069866   -1.8432594 
H     3.0033858   -3.0888788   -1.1129430 
