24
UFF-Energy = 0.0715028
C     1.6985117    2.8841665    0.0126507 
C     0.7596999    3.2235808   -0.8993221 
C     0.1009120    2.2489216   -1.5806475 
C     1.9866815    1.5803493    0.2500502 
C     1.3308155    0.5989713   -0.4291110 
C     0.3843601    0.9423689   -1.3470319 
O     0.4932678    4.5784652   -1.1174971 
H    -0.2234802    4.7561661   -1.8129139 
H    -0.1504459    0.1731013   -1.9019312 
H     2.7465367    1.3301008    0.9855807 
H     2.2178929    3.6697582    0.5506719 
H    -0.6535762    2.5132822   -2.3137975 
C     1.6596870   -0.8591370   -0.1799325 
C     2.7481329   -1.4142037   -1.1336614 
H     0.7347022   -1.4708862   -0.2923308 
H     1.9807779   -1.0026575    0.8754907 
C     2.3472392   -1.3003943   -2.6002966 
O     1.2430514   -2.0053576   -3.0609915 
O     2.9936022   -0.4306552   -3.4692747 
H     2.6148627    0.4940734   -3.3403501 
N     4.0610277   -0.8057856   -0.8507781 
H     2.8319761   -2.5097689   -0.9532934 
H     4.0505519    0.2141154   -1.0860266 
H     4.2907470   -0.8984656    0.1661934 
