24
UFF-Energy = 0.101153
C     1.4037673    2.4502653   -1.6427676 
C     0.1268655    2.8756042   -1.5047850 
C    -0.7588482    2.1401802   -0.7947575 
C     1.7988428    1.2829659   -1.0741974 
C     0.9136926    0.5382737   -0.3553397 
C    -0.3717571    0.9714413   -0.2239787 
O    -0.2755729    4.0718039   -2.0903060 
H    -0.6230189    3.9073136   -3.0295203 
H    -1.0991240    0.3808737    0.3258868 
H     2.8207374    0.9395466   -1.2149700 
H     2.1017415    3.0477334   -2.2189998 
H    -1.7798042    2.4920716   -0.6944990 
C     1.3439930   -0.7892787    0.2363458 
C     1.2130400   -2.0056835   -0.7456331 
H     0.7421573   -0.9966752    1.1493448 
H     2.3768600   -0.6699090    0.6262070 
C     0.5842987   -1.6527013   -2.1066015 
O     1.3916078   -1.2127033   -3.1505750 
O    -0.7982597   -1.6881327   -2.3016917 
H    -1.2983895   -1.9905366   -1.4796780 
N     2.4912672   -2.7524573   -0.8734056 
H     0.4914703   -2.7170626   -0.2859989 
H     2.8267033   -2.7783162   -1.8679317 
H     3.2803417   -2.3449079   -0.3231342 
