24
UFF-Energy = 0.0851708
C     2.0238061    2.7523346    0.2564239 
C     0.9628380    3.2388610   -0.4402366 
C     0.1529368    2.3854491   -1.1069026 
C     2.2673414    1.4184134    0.2840091 
C     1.4506745    0.5556652   -0.3840735 
C     0.3898439    1.0494518   -1.0805281 
O     0.6814491    4.6080959   -0.4858077 
H     1.3425637    5.1848847    0.0229509 
H    -0.2701517    0.3832107   -1.6294146 
H     3.1221565    1.0475416    0.8430091 
H     2.6806863    3.4283617    0.7923285 
H    -0.6854993    2.7870263   -1.6659475 
C     1.7275253   -0.9350818   -0.3632433 
C     2.5711098   -1.4238191   -1.5696328 
H     0.7638329   -1.4910479   -0.3320352 
H     2.2524501   -1.2066905    0.5798312 
C     1.8363269   -1.2865736   -2.8975432 
O     1.8769202   -0.1006347   -3.6209958 
O     1.0242924   -2.3203362   -3.3489086 
H     0.1509208   -2.3013960   -2.8449799 
N     3.8955015   -0.7754714   -1.5907630 
H     2.7298858   -2.5205162   -1.4556801 
H     3.7967110    0.2397029   -1.8351230 
H     4.3454280   -0.8351164   -0.6476794 
