24
UFF-Energy = 0.0833333
C     1.0325996    2.1175830    0.9881376 
C    -0.1090276    2.3854594    0.3134840 
C    -0.5165907    1.5634336   -0.6810019 
C     1.7747918    1.0276668    0.6667713 
C     1.3692193    0.1936339   -0.3316346 
C     0.2206490    0.4715946   -1.0088237 
O    -0.8674445    3.5031201    0.6459436 
H    -0.5689613    4.3118963    0.1116652 
H    -0.1163444   -0.1776733   -1.8132720 
H     2.6977764    0.8313858    1.2094785 
H     1.3449772    2.7825812    1.7863038 
H    -1.4378327    1.7860974   -1.2094540 
C     2.2079872   -1.0067848   -0.7127937 
C     3.1634712   -0.6961690   -1.8901576 
H     1.5363073   -1.8497644   -0.9901598 
H     2.8039254   -1.3557881    0.1623720 
C     4.1185336    0.4398985   -1.5461420 
O     5.0683430    0.2785633   -0.5461947 
O     4.0055375    1.6683420   -2.1822623 
H     3.2425234    2.1853349   -1.7711109 
N     3.8705793   -1.9271139   -2.3241201 
H     2.5684654   -0.3185820   -2.7542259 
H     4.9088056   -1.8348840   -2.1903247 
H     3.5939628   -2.7700485   -1.7677234 
