24
UFF-Energy = 0.0704421
C     1.1974487    2.4273635   -1.0051882 
C    -0.0752663    2.5658062   -0.5464466 
C    -0.7527826    1.4773456   -0.1163364 
C     1.7824535    1.2031144   -1.0353328 
C     1.0968195    0.1044894   -0.6143688 
C    -0.1741914    0.2505515   -0.1472672 
O    -0.7088351    3.8120348   -0.5072067 
H    -0.1285803    4.5812384   -0.8238639 
H    -0.7303574   -0.6096113    0.2175420 
H     2.8037016    1.1093326   -1.3957841 
H     1.7511443    3.2957459   -1.3456956 
H    -1.7623488    1.6024372    0.2596269 
C     1.7583049   -1.2579544   -0.6261293 
C     2.5544378   -1.5273674    0.6726218 
H     2.4464244   -1.3214429   -1.4986302 
H     0.9958901   -2.0560311   -0.7735773 
C     1.6398581   -1.5510497    1.8990355 
O     1.4510239   -0.3833242    2.6277614 
O     0.9106284   -2.6843269    2.2532189 
H     1.2268910   -3.4790190    1.7184083 
N     3.3317150   -2.7828462    0.5472288 
H     3.2508202   -0.6707289    0.8469476 
H     3.1429197   -3.2978522   -0.3466266 
H     4.3579667   -2.5663664    0.5519795 
