24
UFF-Energy = 0.0822605
C     2.3387146    2.4213886    0.4373133 
C     1.5902573    3.2796335   -0.2928653 
C     0.6958083    2.8038881   -1.1891640 
C     2.1891214    1.0817016    0.2794109 
C     1.2884300    0.5937632   -0.6193949 
C     0.5404946    1.4652850   -1.3533944 
O     1.7452983    4.6523643   -0.1277088 
H     1.1278691    4.9990885    0.5982696 
H    -0.1837645    1.1001881   -2.0768569 
H     2.7957700    0.4034925    0.8746635 
H     3.0597266    2.8173027    1.1442354 
H     0.1093749    3.5036762   -1.7754137 
C     1.1266191   -0.9021777   -0.7962558 
C     2.3291940   -1.5464349   -1.5427862 
H     0.1846292   -1.1451241   -1.3373009 
H     1.0135436   -1.3550659    0.2166063 
C     2.3198437   -3.0769608   -1.3395961 
O     2.3252366   -3.5336332   -0.0271065 
O     2.2933151   -4.0493326   -2.3421000 
H     2.5355425   -3.7192343   -3.2547633 
N     2.4169769   -1.0327963   -2.9345209 
H     3.2633391   -1.2361941   -1.0236001 
H     2.4584217   -1.7540525   -3.6771918 
H     1.6184228   -0.4051989   -3.1888418 
