24
UFF-Energy = 0.0806234
C     1.6363409    2.8404824    0.2708185 
C     0.7795688    3.2613296   -0.6872341 
C     0.1816726    2.3629858   -1.5024982 
C     1.8932230    1.5172321    0.4221398 
C     1.2921720    0.6029888   -0.3920917 
C     0.4320722    1.0368626   -1.3565085 
O     0.5193444    4.6193910   -0.8397956 
H    -0.2510186    4.9067809   -0.2462124 
H    -0.0614082    0.3293276   -2.0179697 
H     2.5873016    1.1967905    1.1944603 
H     2.1182159    3.5718588    0.9098759 
H    -0.4951976    2.7139783   -2.2747724 
C     1.5872042   -0.8766361   -0.2303469 
C     2.7108015   -1.3963159   -1.1668605 
H     0.6544920   -1.4601836   -0.4063711 
H     1.8703490   -1.0900887    0.8240711 
C     2.3068339   -1.3905053   -2.6482152 
O     1.0152701   -1.7666298   -2.9991647 
O     3.2136606   -1.1226028   -3.6725160 
H     4.1405025   -0.9701617   -3.3051515 
N     3.9800608   -0.6880808   -0.8995335 
H     2.8618899   -2.4760423   -0.9372443 
H     3.8832848    0.3331386   -1.1178987 
H     4.2259790   -0.7672281    0.1164293 
