24
UFF-Energy = 0.083579
C    -0.3158614    2.0586363    0.6862772 
C    -1.1799143    2.3656352   -0.3084325 
C    -0.9448608    1.9292529   -1.5671344 
C     0.7846031    1.3082439    0.4263533 
C     1.0289773    0.8673871   -0.8392794 
C     0.1541153    1.1779768   -1.8340165 
O    -2.3105304    3.1317613   -0.0377559 
H    -3.0898660    2.5337768    0.2154293 
H     0.3224382    0.8091618   -2.8422512 
H     1.4587523    1.0543286    1.2398534 
H    -0.5166198    2.4133121    1.6907604 
H    -1.6473976    2.1807085   -2.3539333 
C     2.2359974    0.0008053   -1.1306255 
C     1.8776224   -1.5028134   -1.1957896 
H     3.0208826    0.1718129   -0.3609961 
H     2.6931059    0.3209469   -2.0934926 
C     1.1111718   -1.9745654    0.0499642 
O    -0.2138815   -2.3845105   -0.0457998 
O     1.7342062   -2.0267215    1.2983977 
H     2.6857612   -1.6987275    1.2561487 
N     1.1494625   -1.7584444   -2.4532559 
H     2.8223291   -2.0944212   -1.1984245 
H     1.8131540   -1.6958874   -3.2604989 
H     0.7719646   -2.7370383   -2.4548264 
