24
UFF-Energy = 0.0771312
C     1.8805113    2.5957191    0.4156978 
C     0.5952833    2.9047785    0.1268855 
C    -0.1933364    2.0021270   -0.5002841 
C     2.3805877    1.3780038    0.0845057 
C     1.5919206    0.4636551   -0.5464331 
C     0.2992749    0.7822862   -0.8347530 
O     0.0862278    4.1538182    0.4684786 
H    -0.3000400    4.1398063    1.4059064 
H    -0.3463904    0.0654166   -1.3369082 
H     3.4140365    1.1437675    0.3262588 
H     2.5038098    3.3331952    0.9095106 
H    -1.2194475    2.2657172   -0.7344923 
C     2.1356072   -0.9008046   -0.9064262 
C     1.6810682   -1.9924909    0.0916244 
H     3.2475814   -0.8829634   -0.9664793 
H     1.7854660   -1.1652106   -1.9314349 
C     2.0553447   -3.3718011   -0.4199056 
O     1.1371047   -4.1087132   -1.1543981 
O     3.3364861   -3.8750989   -0.2397602 
H     3.3813235   -4.2952834    0.6768207 
N     2.2433401   -1.7492227    1.4324085 
H     0.5681881   -1.9936003    0.1581859 
H     3.2770311   -1.5900863    1.3652483 
H     1.8175176   -0.8829474    1.8382249 
