24
UFF-Energy = 0.0725153
C     0.6789128    1.6823830    1.0702951 
C    -0.0995142    2.5601442    0.3963697 
C    -0.1762219    2.4998813   -0.9524314 
C     1.3784954    0.7339696    0.3965094 
C     1.3040038    0.6635648   -0.9622862 
C     0.5212776    1.5554827   -1.6331796 
O    -0.8146486    3.5309637    1.0899796 
H    -1.7273327    3.1795616    1.3592413 
H     0.4431523    1.5147048   -2.7171091 
H     1.9987012    0.0335698    0.9504146 
H     0.7380435    1.7493572    2.1513989 
H    -0.8003511    3.2122769   -1.4816442 
C     2.0788026   -0.4041457   -1.7080247 
C     1.4026237   -1.7951265   -1.6070217 
H     3.1049007   -0.4519893   -1.2812252 
H     2.2097560   -0.1288482   -2.7793405 
C     0.1269971   -1.9224813   -2.4497961 
O    -0.3276994   -0.8611341   -3.2243906 
O    -0.6083742   -3.1043386   -2.4511248 
H    -0.0939343   -3.8321480   -1.9763353 
N     2.3785424   -2.8412868   -1.9624673 
H     1.0740529   -1.9648601   -0.5555757 
H     2.7627551   -2.6637088   -2.9231672 
H     3.1862900   -2.8241641   -1.2943754 
