24
UFF-Energy = 1.26995
C     1.0488966    2.6157753   -0.5099464 
C    -0.3070866    2.5088456   -0.5176065 
C    -0.8819895    1.2815507   -0.5253019 
C     1.8080626    1.4932716   -0.5099028 
C     1.2420727    0.2637586   -0.5325188 
C    -0.1142197    0.1591640   -0.5271214 
O    -1.1314580    3.6383473   -0.5171442 
H    -0.6268217    4.5183266   -0.5070389 
H    -0.5935922   -0.8162488   -0.5208188 
H     2.9880819    1.4610318   -0.5237911 
H     1.5272083    3.5888167   -0.5046872 
H    -1.9643424    1.2108759   -0.5252281 
C     2.1344315   -0.9684160   -0.4764709 
C     3.4045884   -0.8816694   -1.3717551 
H     1.5523968   -1.8630744   -0.7937504 
H     2.4384827   -1.1426116    0.5793267 
C     4.4497715    0.1484845   -0.8893909 
O     4.0889692    1.4473448   -0.5342200 
O     5.7960131   -0.1738658   -0.8855770 
H     6.3196087    0.6323074   -0.5675280 
N     3.9694913   -2.2387801   -1.4830304 
H     3.0967748   -0.5380500   -2.3869179 
H     4.8089904   -2.2041042   -2.1127475 
H     4.3495499   -2.5229066   -0.5481828 
