24
UFF-Energy = 0.017343
C     1.8194037    2.8860183   -0.1338952 
C     0.9609446    3.2893245   -1.1080765 
C     0.2218301    2.3700234   -1.7698010 
C     1.9293700    1.5679036    0.1764394 
C     1.1805946    0.6434499   -0.4848926 
C     0.3311573    1.0516806   -1.4666489 
O     0.8205253    4.6380884   -1.4494897 
H     1.4160611    5.2701155   -0.9265329 
H    -0.2655097    0.3277835   -2.0167475 
H     2.6306525    1.2472195    0.9471463 
H     2.4208514    3.6197296    0.3912369 
H    -0.4565376    2.7008896   -2.5498215 
C     1.3208134   -0.8280122   -0.1601008 
C     2.4444384   -1.4958310   -0.9755741 
H     0.3622734   -1.3543797   -0.3671281 
H     1.5200051   -0.9748002    0.9258063 
C     3.8260232   -0.9778811   -0.6030345 
O     4.8191698   -0.9031331   -1.5694073 
O     4.1260323   -0.6091055    0.7055307 
H     5.1192797   -0.4114051    0.7616214 
N     2.3407352   -2.9538011   -0.7964065 
H     2.3057702   -1.2491375   -2.0548052 
H     3.0497480   -3.4197917   -1.4131245 
H     2.6143621   -3.1958983    0.1870635 
