24
UFF-Energy = 0.0769841
C     1.7656153    2.6375324    0.0856173 
C     0.4691338    2.8582831   -0.2323680 
C    -0.2871484    1.8518030   -0.7274716 
C     2.3137745    1.4094333   -0.0980929 
C     1.5606384    0.3934877   -0.6047824 
C     0.2538220    0.6210350   -0.9146687 
O    -0.0897117    4.1178516   -0.0401521 
H     0.0404188    4.6965925   -0.8626278 
H    -0.3665431   -0.1799065   -1.3103300 
H     3.3550886    1.2467098    0.1674586 
H     2.3560461    3.4506336    0.4935827 
H    -1.3287357    2.0385408   -0.9673249 
C     2.1569846   -0.9831863   -0.7941540 
C     1.7424043   -1.9594929    0.3326221 
H     3.2676713   -0.9304736   -0.8576114 
H     1.8193652   -1.3862432   -1.7772532 
C     2.1819664   -3.3737082    0.0002590 
O     1.3066085   -4.2350806   -0.6458914 
O     3.4808312   -3.7939725    0.2520567 
H     3.5298335   -4.0985899    1.2130891 
N     2.2815194   -1.5243288    1.6338123 
H     0.6300849   -2.0027528    0.3954347 
H     3.3065361   -1.3232703    1.5496227 
H     1.8102411   -0.6364792    1.9284044 
