24
UFF-Energy = 0.0624108
C     0.6577866    2.6130301   -0.6869566 
C    -0.2092122    2.5728580    0.3598939 
C    -0.4190892    1.4053678    1.0090426 
C     1.3143346    1.4900090   -1.0736980 
C     1.1089015    0.3152116   -0.4163141 
C     0.2299347    0.2779156    0.6232274 
O    -0.8971936    3.7123672    0.7890014 
H    -0.7123419    4.5436932    0.2385406 
H     0.0381138   -0.6538116    1.1492542 
H     1.9938675    1.5364607   -1.9226565 
H     0.8225237    3.5426115   -1.2197842 
H    -1.1188488    1.3824731    1.8381051 
C     1.8149321   -0.9462382   -0.8664417 
C     1.0025661   -1.7095093   -1.9284811 
H     1.9890320   -1.6134010    0.0068267 
H     2.8217928   -0.6991322   -1.2723000 
C     0.8923666   -0.9171540   -3.2264496 
O    -0.3519553   -0.5306006   -3.7002402 
O     2.0294178   -0.5337928   -3.9277748 
H     2.4038532   -1.3369893   -4.4088951 
N     1.6117240   -3.0371829   -2.1213355 
H    -0.0384211   -1.8480263   -1.5518546 
H     1.0223247   -3.5915357   -2.7884147 
H     2.5623532   -2.9426648   -2.5514515 
