24
UFF-Energy = 0.0465141
C     1.6730214    2.8213135   -0.0737829 
C     1.0339703    3.2285970   -1.1944044 
C     0.4960843    2.3167241   -2.0364707 
C     1.7633764    1.4972005    0.2166965 
C     1.2101480    0.5741197   -0.6186292 
C     0.5841938    0.9917939   -1.7538619 
O     0.9406391    4.5851306   -1.4864530 
H     0.1145792    4.9894584   -1.0595362 
H     0.1542636    0.2701567   -2.4442948 
H     2.2961689    1.1735705    1.1110179 
H     2.1194943    3.5661257    0.5771340 
H     0.0018057    2.6560764   -2.9409608 
C     1.3259508   -0.9032718   -0.3110911 
C     2.6207970   -1.5150492   -0.8962415 
H     0.4410195   -1.4374521   -0.7214914 
H     1.3064114   -1.0748277    0.7897837 
C     3.8735546   -0.9410327   -0.2497884 
O     5.0064615   -0.6946671   -1.0150522 
O     3.9006297   -0.6443891    1.1122446 
H     4.8496869   -0.3882879    1.3600865 
N     2.5819306   -2.9809397   -0.7575170 
H     2.6961745   -1.2601919   -1.9786232 
H     2.5240431   -3.2383002    0.2574156 
H     1.7384404   -3.3691776   -1.2404223 
