24
UFF-Energy = 0.0833586
C     0.7160420    2.4526873   -0.0650244 
C    -0.4394674    2.2537667    0.6101759 
C    -0.9245203    1.0008720    0.7671458 
C     1.4008473    1.3957327   -0.5713534 
C     0.9267524    0.1291608   -0.4050105 
C    -0.2481024   -0.0608112    0.2591964 
O    -1.1353543    3.3377554    1.1355378 
H    -0.8377961    3.5303976    2.0853707 
H    -0.6545279   -1.0612244    0.3829829 
H     2.3214687    1.5734526   -1.1235589 
H     1.0819077    3.4644072   -0.2046764 
H    -1.8622217    0.8581561    1.2938563 
C     1.6738108   -1.0519340   -0.9895254 
C     1.1720037   -1.4066948   -2.4102798 
H     1.5490316   -1.9296685   -0.3178393 
H     2.7659549   -0.8355905   -1.0269664 
C     1.4256607   -0.2653129   -3.3897895 
O     0.3802690    0.2519415   -4.1397578 
O     2.6950772    0.2839272   -3.5318430 
H     3.2607593   -0.3322126   -4.0945142 
N     1.7478810   -2.6967356   -2.8638656 
H     0.0631764   -1.5214425   -2.3794308 
H     2.3783644   -2.5767079   -3.6916328 
H     2.3132573   -3.1756032   -2.1239641 
