24
UFF-Energy = 0.0656397
C     1.6451905    2.4032112    0.6789839 
C     0.8718737    3.1335434   -0.1681391 
C     0.2950841    2.5318534   -1.2331204 
C     1.8364975    1.0782497    0.4567742 
C     1.2534918    0.4710200   -0.6133360 
C     0.4831594    1.2071105   -1.4607339 
O     0.6553611    4.5008712    0.0304555 
H     1.1180223    4.8770337    0.8510481 
H     0.0136487    0.7441797   -2.3247301 
H     2.4601620    0.5075363    1.1411017 
H     2.1134148    2.8770334    1.5350471 
H    -0.3184771    3.1266583   -1.9010376 
C     1.4829586   -1.0019418   -0.8685783 
C     2.8735344   -1.2783821   -1.4884925 
H     0.6867488   -1.4220281   -1.5241093 
H     1.3936202   -1.5490998    0.0989263 
C     3.1484320   -2.7711977   -1.5356511 
O     3.7893053   -3.3894706   -0.4712930 
O     2.6858651   -3.5482010   -2.5890715 
H     3.3572364   -3.4878497   -3.3402856 
N     2.9855096   -0.6712506   -2.8268505 
H     3.6636108   -0.8499701   -0.8291016 
H     2.1590749   -0.9390494   -3.4129637 
H     2.9839151    0.3722139   -2.7380967 
