24
UFF-Energy = 0.0491533
C     1.9168879    2.7010260   -0.2181925 
C     0.5927997    2.9185880   -0.0514570 
C    -0.2769364    1.8786645   -0.1531799 
C     2.3809683    1.4542085   -0.4855129 
C     1.5146052    0.4085537   -0.5880146 
C     0.1812017    0.6292113   -0.4205347 
O     0.1539548    4.2180548    0.2218695 
H    -0.8497471    4.3027032    0.3391971 
H    -0.5264955   -0.1928479   -0.4996386 
H     3.4490271    1.3022170   -0.6157002 
H     2.6010479    3.5386280   -0.1342755 
H    -1.3400760    2.0455620   -0.0206309 
C     2.0213122   -0.9881433   -0.8788282 
C     1.9947504   -1.8933540    0.3782540 
H     3.0539548   -0.9664897   -1.2952522 
H     1.3841845   -1.4332207   -1.6777285 
C     2.1606299   -3.3512328   -0.0233921 
O     1.0392741   -4.1517539   -0.2008312 
O     3.4197128   -3.8755465   -0.2888829 
H     3.3178173   -4.8447139   -0.5633058 
N     2.9884397   -1.4521518    1.3900320 
H     0.9825242   -1.8464244    0.8418499 
H     3.6934803   -2.2069544    1.5812090 
H     3.5489483   -0.6326556    1.0636284 
