24
UFF-Energy = 0.0502496
C     1.3144094    2.3325613    0.8723360 
C     0.2716530    2.8033171    0.1520253 
C    -0.2233194    2.0640848   -0.8756706 
C     1.8680143    1.1301630    0.5759830 
C     1.3752502    0.3825753   -0.4510284 
C     0.3242766    0.8588619   -1.1751144 
O    -0.2716345    4.0467538    0.4893190 
H    -1.0367209    4.3417546   -0.1073714 
H    -0.0762824    0.2838155   -2.0065387 
H     2.7088058    0.7746094    1.1652504 
H     1.7031051    2.9322973    1.6881765 
H    -1.0549367    2.4376221   -1.4626280 
C     1.9989013   -0.9570528   -0.7921799 
C     3.0569970   -0.8747683   -1.9206898 
H     1.1993103   -1.6733500   -1.0883997 
H     2.4704698   -1.3959025    0.1145030 
C     2.4347367   -0.5264615   -3.2635273 
O     1.9530010   -1.5436249   -4.0795818 
O     2.2467967    0.7960063   -3.6509074 
H     1.8441275    0.8124010   -4.5784601 
N     4.1628072    0.0318639   -1.5574241 
H     3.4817517   -1.8941785   -2.0683040 
H     3.8325331    1.0276171   -1.5909728 
H     4.4949311   -0.1635519   -0.5846469 
