24
UFF-Energy = 0.0695472
C     1.6034172    2.6941118    0.3971793 
C     0.4820111    3.0404833   -0.2751940 
C    -0.1846704    2.1147538   -1.0020437 
C     2.0581748    1.4169158    0.3525352 
C     1.3871961    0.4751064   -0.3685695 
C     0.2624546    0.8340058   -1.0498136 
O     0.0199434    4.3518350   -0.2282468 
H    -0.6045066    4.4840887    0.5595866 
H    -0.2775467    0.1035111   -1.6487485 
H     2.9642333    1.1566520    0.8928591 
H     2.1369690    3.4489527    0.9635519 
H    -1.0728701    2.4091717   -1.5516041 
C     1.9036411   -0.9477945   -0.4383980 
C     2.8850140   -1.1746506   -1.6106864 
H     1.0473804   -1.6549235   -0.5311193 
H     2.4069261   -1.2105784    0.5182050 
C     2.2003965   -0.9961315   -2.9653587 
O     1.5857822   -2.0936797   -3.5522483 
O     2.1166948    0.2388844   -3.6069259 
H     2.5488130    0.9658259   -3.0547147 
N     4.0669403   -0.3076121   -1.4546416 
H     3.2083303   -2.2419989   -1.5832004 
H     4.5548427   -0.5511431   -0.5603143 
H     4.7500179   -0.5200267   -2.2213896 
