24
UFF-Energy = 0.0534842
C     1.7367464    2.5345728    0.5738001 
C     0.8427774    3.1630204   -0.2241898 
C     0.1661066    2.4641025   -1.1642327 
C     1.9619061    1.2037085    0.4303040 
C     1.2811935    0.4924932   -0.5116412 
C     0.3856803    1.1330027   -1.3135086 
O     0.6156088    4.5277201   -0.0749543 
H     1.2611729    5.0619521   -0.6459940 
H    -0.1543035    0.5852251   -2.0816346 
H     2.6880941    0.7131208    1.0736254 
H     2.2670789    3.1063195    1.3273307 
H    -0.5502530    2.9783651   -1.7960379 
C     1.5449415   -0.9864581   -0.6883610 
C     2.6991961   -1.2398188   -1.6778533 
H     0.6255893   -1.5038906   -1.0433007 
H     1.7874308   -1.4392830    0.3006257 
C     3.1472280   -2.6925098   -1.6230178 
O     3.9767616   -3.1186039   -0.5937508 
O     2.7039430   -3.6128299   -2.5646371 
H     3.0939448   -4.5203452   -2.3427470 
N     2.2858821   -0.8215294   -3.0313919 
H     3.5849112   -0.6411764   -1.3606498 
H     3.0757957   -1.0002601   -3.6969255 
H     1.5098013   -1.4467504   -3.3581000 
