24
UFF-Energy = 0.0445844
C     2.0299414    2.5848836   -0.4032675 
C     0.8213253    3.0172573    0.0458475 
C    -0.1967648    2.1368586    0.1764820 
C     2.2119637    1.2781967   -0.7218229 
C     1.1844865    0.3932228   -0.6003287 
C    -0.0209914    0.8290402   -0.1415860 
O     0.5991878    4.3571169    0.3801489 
H     1.4138040    4.9505222    0.2678794 
H    -0.8492877    0.1344243   -0.0180313 
H     3.1861534    0.9460351   -1.0725161 
H     2.8540222    3.2824967   -0.5060154 
H    -1.1529129    2.4935160    0.5438870 
C     1.3940125   -1.0675717   -0.9347013 
C     1.9643535   -1.8547123    0.2588929 
H     2.0939448   -1.1563916   -1.7951004 
H     0.4391206   -1.5347308   -1.2661057 
C     0.9868843   -1.9116246    1.4264033 
O     1.4210737   -1.6374744    2.7172964 
O    -0.3401438   -2.2733401    1.2181996 
H    -0.8136253   -2.2875690    2.1130608 
N     2.3455787   -3.1973982   -0.2117070 
H     2.8765943   -1.3308473    0.6290289 
H     2.8669009   -3.6875781    0.5543799 
H     1.4803113   -3.7647135   -0.3882281 
