24
UFF-Energy = 0.0669124
C     0.0006110    2.0666514   -0.0672596 
C    -0.2026275    2.5467797   -1.3250375 
C     0.3465437    1.9056272   -2.3811441 
C     0.7501801    0.9387295    0.1231082 
C     1.2988214    0.2993189   -0.9432392 
C     1.0967614    0.7909638   -2.1956900 
O    -0.9663269    3.6953248   -1.5585715 
H    -1.3420749    4.1425057   -0.7299794 
H     1.5348425    0.2950937   -3.0587297 
H     0.9605486    0.5353376    1.1430914 
H    -0.4373570    2.6054799    0.7711525 
H     0.1827082    2.2975557   -3.3797623 
C     2.1459344   -0.9396979   -0.7355307 
C     3.6588298   -0.6239215   -0.6643731 
H     1.9528244   -1.6521844   -1.5679276 
H     1.8567332   -1.5067361    0.1833397 
C     4.1012525    0.1171153    0.6165919 
O     5.3215113    0.7980028    0.5788157 
O     3.3392952    0.1459842    1.8145412 
H     2.4012512   -0.2781459    1.8443171 
N     4.3957605   -1.8915736   -0.8384025 
H     3.9197714    0.0648871   -1.5017174 
H     4.2850463   -2.2363928   -1.8216343 
H     5.4251540   -1.7324069   -0.7066021 
