24
UFF-Energy = 0.053818
C     2.5411092    2.4013412    0.2692986 
C     1.4200294    3.1638210    0.3609357 
C     0.2287376    2.6479667   -0.0157599 
C     2.4646306    1.1292802   -0.1986225 
C     1.2643815    0.6027037   -0.5718413 
C     0.1454171    1.3756662   -0.4812456 
O     1.4637301    4.4783004    0.8352374 
H     2.3882964    4.7868832    1.1161605 
H    -0.8242045    0.9839650   -0.7779693 
H     3.3704105    0.5310906   -0.2601304 
H     3.5007145    2.8060515    0.5730685 
H    -0.6577345    3.2686783    0.0618123 
C     1.1710806   -0.8197506   -1.0992679 
C     1.3227144   -1.9158969   -0.0101861 
H     1.9496772   -0.9681641   -1.8814105 
H     0.1981866   -0.9766749   -1.6161089 
C     2.7439877   -1.9916404    0.5363622 
O     3.6959874   -2.7558141   -0.1266585 
O     3.1355373   -1.2262375    1.6303668 
H     4.0959668   -1.4469051    1.8645231 
N     0.2767273   -1.8142722    1.0377569 
H     1.1825175   -2.8976098   -0.5171617 
H     0.7136972   -1.7379106    1.9893827 
H    -0.3073017   -0.9544769    0.9367879 
