24
UFF-Energy = 0.0789201
C     0.7816882    2.2239613    0.6166713 
C    -0.0288446    2.7704193   -0.3282856 
C    -0.2954411    2.0803111   -1.4601932 
C     1.3214066    0.9939446    0.4235744 
C     1.0571857    0.2991892   -0.7175500 
C     0.2416209    0.8497676   -1.6589235 
O    -0.5998702    4.0361858   -0.1621478 
H    -0.3583067    4.4869454    0.7138263 
H     0.0111912    0.3115865   -2.5747606 
H     1.9647311    0.5681971    1.1897012 
H     0.9992569    2.7686367    1.5290652 
H    -0.9462926    2.5269767   -2.2040727 
C     1.6652016   -1.0714727   -0.9310619 
C     3.1869082   -1.0060297   -1.2329464 
H     1.1495656   -1.6196176   -1.7526963 
H     1.4891459   -1.6760993   -0.0117137 
C     3.8439829   -2.3877818   -1.1628061 
O     3.0641479   -3.5351937   -1.0499292 
O     5.2322335   -2.5251470   -1.1835302 
H     5.6869686   -1.6410132   -1.3574468 
N     3.4454228   -0.3811379   -2.5477932 
H     3.6744733   -0.4092524   -0.4275090 
H     2.5848771    0.0321897   -2.9754530 
H     4.1201473    0.4115785   -2.4329583 
