24
UFF-Energy = 0.0642429
C     2.7852279    2.0204138    0.3571350 
C     1.7341494    2.7554225    0.7885587 
C     0.4713558    2.3147137    0.5854849 
C     2.5766170    0.8453948   -0.2897703 
C     1.3075215    0.4016968   -0.5103315 
C     0.2546500    1.1417942   -0.0617014 
O     1.9525602    3.9601008    1.4497594 
H     2.0097706    4.7273131    0.7892697 
H    -0.7662284    0.7965201   -0.2101730 
H     3.4304172    0.2621789   -0.6250739 
H     3.7923847    2.3783310    0.5415019 
H    -0.3634910    2.9036433    0.9506371 
C     1.0751853   -0.9187790   -1.2134398 
C     1.1831427   -2.1152745   -0.2479109 
H     1.8177745   -1.0340610   -2.0328206 
H     0.0757321   -0.9358459   -1.7060902 
C     0.0932751   -2.0904038    0.8170843 
O    -1.2154059   -1.7342688    0.5032569 
O     0.3981358   -2.4689721    2.1180029 
H    -0.4412125   -2.4071762    2.6801337 
N     1.1381669   -3.3564234   -1.0414650 
H     2.1507332   -2.0581613    0.3052076 
H     2.0353281   -3.4582252   -1.5710931 
H     1.0922229   -4.1797030   -0.3917302 
