24
UFF-Energy = 0.0768414
C     1.8538312    2.2103030    1.3869471 
C     0.5630161    2.6124678    1.4143123 
C    -0.3291807    2.0816919    0.5477820 
C     2.2605505    1.2828436    0.4834396 
C     1.3678874    0.7379414   -0.3917438 
C     0.0680692    1.1490893   -0.3550311 
O     0.1504452    3.5692105    2.3365964 
H     0.2518032    4.5028710    1.9547563 
H    -0.6636118    0.7353456   -1.0439183 
H     3.3031951    0.9738143    0.4767206 
H     2.5553874    2.6324221    2.0982180 
H    -1.3636115    2.4068177    0.5867845 
C     1.8147717   -0.3043521   -1.4025338 
C     2.0450024   -1.7147232   -0.7931647 
H     2.7520270    0.0493779   -1.8879246 
H     1.0681319   -0.3900796   -2.2235453 
C     3.2340894   -1.7343492    0.1729926 
O     3.0310710   -1.6046008    1.5407568 
O     4.5466322   -1.7811821   -0.2969085 
H     4.6020753   -1.8464052   -1.3013397 
N     0.7953281   -2.2827360   -0.2287073 
H     2.3542503   -2.3893315   -1.6224724 
H     0.9071723   -2.5123296    0.7897127 
H    -0.0037929   -1.6106339   -0.2685972 
