24
UFF-Energy = 0.0686572
C     1.4101523    2.6135528    0.2973237 
C     0.2727691    2.8954252   -0.3783992 
C    -0.3339864    1.9347622   -1.1120832 
C     1.9382779    1.3635322    0.2519713 
C     1.3270759    0.3858908   -0.4737311 
C     0.1881804    0.6826912   -1.1618152 
O    -0.2678568    4.1762464   -0.3257138 
H    -0.9024930    4.2652662    0.4597172 
H    -0.3059288   -0.0751923   -1.7654676 
H     2.8615869    1.1507941    0.7840480 
H     1.8969567    3.4000792    0.8637416 
H    -1.2350597    2.1779387   -1.6652986 
C     1.9212327   -1.0094544   -0.5325197 
C     3.1102433   -1.1115492   -1.5112372 
H     1.1411944   -1.7472385   -0.8272549 
H     2.2572186   -1.3104707    0.4833002 
C     2.7073347   -0.7550075   -2.9446920 
O     1.4740504   -1.1635567   -3.4452492 
O     3.6066131   -0.1351196   -3.8063164 
H     3.1616394   -0.0057640   -4.7056562 
N     4.2268321   -0.2965040   -0.9893461 
H     3.4264236   -2.1787437   -1.5611476 
H     4.7190269   -0.8360405   -0.2398673 
H     4.9366515   -0.1448436   -1.7492530 
