24
UFF-Energy = 0.0517058
C     1.3312214    2.5154983   -0.8745627 
C     0.3988900    2.8353941    0.0519536 
C    -0.1613883    1.8667343    0.8108724 
C     1.7177012    1.2240606   -1.0360119 
C     1.1667574    0.2417364   -0.2684372 
C     0.2183712    0.5727072    0.6533934 
O     0.0091690    4.1597831    0.2195062 
H     0.5909134    4.6211798    0.9097455 
H    -0.2451445   -0.1989506    1.2626636 
H     2.4592015    0.9801277   -1.7922677 
H     1.7572134    3.3005626   -1.4902006 
H    -0.9216437    2.1353806    1.5370348 
C     1.5919930   -1.2033875   -0.4543649 
C     0.7669251   -1.9358397   -1.5352611 
H     1.5127507   -1.7544088    0.5094480 
H     2.6666724   -1.2399955   -0.7361678 
C    -0.6977062   -2.1020704   -1.1351416 
O    -1.6891269   -2.2322220   -2.1015724 
O    -1.0489828   -2.2630729    0.2022908 
H    -2.0436754   -2.4509276    0.2502189 
N     0.9368115   -1.2394134   -2.8249851 
H     1.1557670   -2.9759228   -1.6225209 
H     1.9022212   -1.4182224   -3.1866135 
H     0.2818246   -1.6496612   -3.5347701 
