24
UFF-Energy = 1.25139
C     1.1118743    2.4690271    0.2191526 
C    -0.2230605    2.3040002    0.3708162 
C    -0.7898011    1.0978137    0.1218451 
C     1.8714666    1.4251779   -0.1923744 
C     1.3175693    0.2196395   -0.4630618 
C    -0.0225697    0.0530571   -0.2901866 
O    -1.0125186    3.3690448    0.7922793 
H    -1.3438903    3.9072068   -0.0008223 
H    -0.4874323   -0.9125768   -0.4715982 
H     3.0359854    1.4559919   -0.3735860 
H     1.5630010    3.4317829    0.4329043 
H    -1.8582707    0.9742314    0.2650249 
C     2.2178720   -0.9393055   -0.8675269 
C     3.3602158   -0.5468125   -1.8603661 
H     1.5998961   -1.7401699   -1.3298141 
H     2.6685178   -1.3814418    0.0495570 
C     4.4621923    0.3374632   -1.2235202 
O     4.1210941    1.4992704   -0.5363447 
O     5.8172546    0.0745904   -1.3709302 
H     5.9602482   -0.8024021   -1.8445434 
N     3.9141514   -1.7688679   -2.4683997 
H     2.9309147    0.0849368   -2.6717377 
H     4.2290053   -2.4168847   -1.7097890 
H     3.1741183   -2.2674518   -3.0219263 
