24
UFF-Energy = 0.0644051
C     0.1886991    2.0272305    0.7602375 
C    -0.1572507    2.7535149   -0.3276118 
C     0.1488157    2.3044978   -1.5662760 
C     0.8492135    0.8502784    0.6134526 
C     1.1637682    0.3929209   -0.6308661 
C     0.8092376    1.1290216   -1.7213511 
O    -0.8352197    3.9586966   -0.1729927 
H    -0.1812239    4.7268991   -0.0708772 
H     1.0496931    0.7818156   -2.7231804 
H     1.1206458    0.2794199    1.4977837 
H    -0.0723382    2.3953998    1.7464650 
H    -0.1419404    2.8914169   -2.4311832 
C     1.8917994   -0.9223227   -0.8065752 
C     0.9592578   -2.0428323   -1.3347799 
H     2.3618645   -1.2560027    0.1470167 
H     2.7350418   -0.7665227   -1.5173905 
C     1.7632230   -3.2480746   -1.7870096 
O     1.5113697   -3.8265079   -3.0264041 
O     2.7737484   -3.7720651   -0.9886583 
H     3.1575030   -4.5860439   -1.4495426 
N    -0.0367018   -2.4429377   -0.3178494 
H     0.4424533   -1.6796806   -2.2548210 
H     0.0060115   -1.8529161    0.5443147 
H    -1.0015727   -2.3321056   -0.7094366 
