24
UFF-Energy = 0.052974
C     1.6980404    2.5576494    0.5443491 
C     0.7771120    3.1364867   -0.2604000 
C     0.1354935    2.3982903   -1.1950067 
C     1.9730459    1.2338198    0.4245191 
C     1.3193924    0.4806285   -0.5039105 
C     0.4044219    1.0737070   -1.3201389 
O     0.4977331    4.4938379   -0.1342623 
H    -0.2411039    4.6456598    0.5433459 
H    -0.1074759    0.4942567   -2.0842667 
H     2.7214726    0.7837942    1.0720175 
H     2.2167452    3.1652673    1.2776716 
H    -0.5873413    2.8776488   -1.8465183 
C     1.6400879   -0.9898939   -0.6555021 
C     2.7962388   -1.2158784   -1.6492431 
H     0.7395155   -1.5495357   -0.9940487 
H     1.9079404   -1.4142944    0.3394387 
C     3.3099196   -2.6449149   -1.5624789 
O     4.1976807   -2.9976594   -0.5542757 
O     2.8660742   -3.6182116   -2.4489520 
H     3.3051779   -4.4992683   -2.2126613 
N     2.3521075   -0.8524395   -3.0086888 
H     3.6563692   -0.5691413   -1.3561756 
H     3.1483645   -0.9955286   -3.6750931 
H     1.6122730   -1.5284835   -3.3177116 
