24
UFF-Energy = 0.0531574
C     0.4106381    2.5628122   -0.7623419 
C    -0.7508230    2.4452023   -0.0781346 
C    -1.1037400    1.2539224    0.4567579 
C     1.2319734    1.4910272   -0.9016331 
C     0.8903244    0.2914350   -0.3534366 
C    -0.2891787    0.1768336    0.3192840 
O    -1.5881090    3.5465545    0.0674318 
H    -1.3585077    4.0643174    0.9084268 
H    -0.5883079   -0.7775584    0.7456160 
H     2.1573054    1.5984001   -1.4635994 
H     0.6714740    3.5189562   -1.2034305 
H    -2.0463111    1.1694558    0.9873680 
C     1.7905710   -0.9130593   -0.5249633 
C     1.3798152   -1.7724273   -1.7335762 
H     1.7568491   -1.5395501    0.3937401 
H     2.8517734   -0.5960112   -0.6424564 
C     1.5672054   -1.0292333   -3.0496008 
O     0.5390135   -0.9898712   -3.9829620 
O     2.7730920   -0.4005421   -3.3399492 
H     2.7083851    0.0061260   -4.2646092 
N     2.1476906   -3.0282321   -1.6901720 
H     0.2939428   -2.0129420   -1.6529349 
H     1.7786949   -3.6739543   -2.4291400 
H     3.1470429   -2.8340524   -1.9455908 
