24
UFF-Energy = 0.061261
C     1.7239593    2.6722608   -0.4257506 
C     0.3958247    2.8400665   -0.2309536 
C    -0.4313385    1.7700365   -0.2482997 
C     2.2321764    1.4303101   -0.6303896 
C     1.4064391    0.3461309   -0.6422896 
C     0.0689540    0.5247182   -0.4516851 
O    -0.1210853    4.1146949   -0.0221865 
H    -0.1134763    4.3469917    0.9650047 
H    -0.6082899   -0.3261866   -0.4633547 
H     3.3013251    1.3131654   -0.7860100 
H     2.3729734    3.5411902   -0.4205678 
H    -1.4959056    1.9198166   -0.1013419 
C     1.9616339   -1.0451808   -0.8619493 
C     1.9968883   -1.8736475    0.4464515 
H     2.9834247   -1.0098145   -1.3033960 
H     1.3246435   -1.5609988   -1.6172045 
C     2.2118424   -3.3437204    0.1275486 
O     3.4634433   -3.8107441   -0.2579522 
O     1.1351832   -4.2190377    0.1465916 
H     1.4638736   -5.1446938   -0.0989135 
N     2.9944911   -1.3368519    1.4069997 
H     0.9928892   -1.8421229    0.9297762 
H     3.7480880   -2.0398317    1.6075642 
H     3.4904183   -0.4934329    1.0391643 
