24
UFF-Energy = 0.0511751
C     1.6958515    2.4257796    0.7191584 
C     0.6720559    2.9809555    0.0178622 
C     0.0350359    2.2510532   -0.9255873 
C     2.0748799    1.1464125    0.4749824 
C     1.4316317    0.4073828   -0.4722531 
C     0.4076188    0.9697359   -1.1719755 
O     0.2545117    4.2958554    0.2475289 
H     0.7902734    4.7830376    0.9575567 
H    -0.1121280    0.4035328   -1.9412571 
H     2.8979854    0.7203065    1.0421541 
H     2.2147615    3.0036920    1.4759190 
H    -0.7743896    2.7080290   -1.4846544 
C     1.8608173   -1.0190509   -0.7556851 
C     2.8574025   -1.1390897   -1.9355583 
H     0.9613746   -1.6397909   -0.9723843 
H     2.3182529   -1.4658069    0.1543023 
C     2.2172898   -0.7736727   -3.2642085 
O     2.2312736    0.5342501   -3.7387225 
O     1.5236014   -1.7430469   -3.9766366 
H     1.1704486   -1.3280749   -4.8298035 
N     4.0948216   -0.3787083   -1.6730855 
H     3.1262536   -2.2142555   -2.0533806 
H     3.9020611    0.6512033   -1.7344363 
H     4.4535549   -0.5814555   -0.7113395 
