13
UFF-Energy = 0.036664
C    -5.0946247    2.2636533    0.7508006 
C    -4.1141515    1.4759092   -0.1417776 
H    -5.4542560    1.6461663    1.6022032 
H    -5.9835590    2.5751338    0.1625261 
H    -4.6246440    3.1774989    1.1778603 
C    -2.7432106    2.1386449   -0.2209799 
N    -4.0390907    0.0902508    0.3500979 
H    -4.5066032    1.4704269   -1.1873376 
H    -3.4774932   -0.4785457   -0.3272666 
H    -3.4937865    0.0803084    1.2483042 
O    -2.3500417    2.7956007   -1.3793252 
O    -1.8870413    2.1191110    0.8724557 
H    -1.0408577    2.6175385    0.6261202 
