13
UFF-Energy = 0.0664565
C    -4.6621125    2.6693888    0.7548874 
C    -4.2765437    1.4030270   -0.0397307 
H    -4.9245451    2.4206076    1.8070438 
H    -5.5547522    3.1496986    0.2995031 
H    -3.8448557    3.4239569    0.7736366 
C    -2.8892839    1.4960849   -0.6830702 
N    -4.4250796    0.2283416    0.8354875 
H    -4.9890765    1.2974557   -0.8941601 
H    -4.3180082   -0.6451896    0.2639725 
H    -3.6656330    0.2072522    1.5565751 
O    -2.7742887    1.3894707   -2.0627858 
O    -1.7359480    1.7042803    0.0742473 
H    -1.9354229    1.7444754    1.0619460 
