13
Energy =
C    -5.2055228    2.0396016   -0.3863143 
C    -3.8731311    1.3654262   -0.0098359 
H    -5.0559332    2.7533092   -1.2265956 
H    -5.6309304    2.5909756    0.4807076 
H    -5.9450284    1.2771626   -0.7140225 
C    -2.7771935    2.3769080    0.3137731 
N    -4.0980344    0.4341941    1.1053955 
H    -3.4923246    0.7904720   -0.8879145 
H    -4.4185919    0.9613566    1.9537485 
H    -4.8467631   -0.2538699    0.8554879 
O    -1.7030726    2.5362331   -0.5520984 
O    -2.8735311    3.2009159    1.4298975 
H    -3.5108229    3.9547700    1.2251354 
