13
Energy =
C    -5.0788905    2.0152156   -0.7872413 
C    -3.8792348    1.4020728   -0.0419087 
H    -4.7439606    2.4649800   -1.7481866 
H    -5.5584387    2.8133192   -0.1777377 
H    -5.8334678    1.2326693   -1.0184140 
C    -2.7890976    2.4414394    0.2278735 
N    -4.3276953    0.7491050    1.2051501 
H    -3.4037716    0.6475089   -0.7152798 
H    -5.3533367    0.8712341    1.3820958 
H    -4.1599230   -0.2834437    1.1417894 
O    -1.6965288    2.5131703   -0.6279770 
O    -2.8902495    3.3675669    1.2666449 
H    -3.6946750    3.1780306    1.8451638 
