13
Energy =
C    -5.3595127    2.2892617    0.3079880 
C    -4.1173487    1.5015813   -0.1431772 
H    -5.4345995    3.2486953   -0.2494875 
H    -5.3035882    2.5217423    1.3956988 
H    -6.2867484    1.7062333    0.1182556 
C    -2.8285918    2.3069788    0.0588429 
N    -4.0736146    0.2164252    0.5703669 
H    -4.1951488    1.2917065   -1.2347581 
H    -4.0083465    0.3805297    1.6049674 
H    -4.9539989   -0.3234321    0.3954310 
O    -2.2378215    2.3596957    1.3168457 
O    -2.2697393    3.0615327   -0.9748162 
H    -2.8097011    3.0085644   -1.8247769 
