13
Energy =
C    -5.2160410    2.2867277   -0.2283513 
C    -3.9645885    1.4121188   -0.0398591 
H    -5.1543789    2.8896862   -1.1586658 
H    -5.3533361    2.9524755    0.6531058 
H    -6.1239285    1.6509500   -0.3119809 
C    -2.6697005    2.1969034    0.2573349 
N    -4.2751888    0.4490195    1.0305405 
H    -3.7590641    0.8638904   -0.9899727 
H    -4.9820974   -0.2422037    0.6851873 
H    -3.4217899   -0.1152680    1.2667939 
O    -1.5846704    1.5117756    0.7914220 
O    -2.4810823    3.5384022   -0.0869132 
H    -3.2794037    3.9611115   -0.5258521 
