13
Energy =
C    -5.1298575    2.3641050    0.6559395 
C    -4.1263200    1.5025372   -0.1234381 
H    -5.3071557    3.3317956    0.1375607 
H    -4.7317122    2.5791961    1.6735941 
H    -6.1002805    1.8350564    0.7628456 
C    -2.8136148    2.2478292   -0.4023967 
N    -3.8987069    0.2692643    0.6437243 
H    -4.5712130    1.2580564   -1.1162874 
H    -4.7882334   -0.2825667    0.6911789 
H    -3.2039555   -0.3370293    0.1460182 
O    -2.4467813    3.3426976    0.3732882 
O    -1.9615671    1.8428719   -1.4312133 
H    -2.3001522    1.0169047   -1.9005017 
