13
Energy =
C    -5.2129362    1.8794404   -0.3755497 
C    -3.7978056    1.4082101   -0.0314025 
H    -5.2066200    2.5713202   -1.2443906 
H    -5.6533556    2.4103694    0.4969866 
H    -5.8580142    1.0075469   -0.6144669 
C    -2.8627643    2.5807933    0.2853769 
N    -3.9315717    0.4427198    1.0775309 
H    -3.3563392    0.9102050   -0.9268510 
H    -3.6784575   -0.5160188    0.7413939 
H    -3.2689797    0.6567900    1.8636037 
O    -1.7094638    2.3738055    1.0303790 
O    -3.0723979    3.8322204   -0.2817602 
H    -2.8036345    3.8043346   -1.2538658 
