13
Energy =
C    -5.1542328    2.2311723   -0.1590941 
C    -3.8833541    1.3654732   -0.0786020 
H    -5.0527733    3.0082844   -0.9488858 
H    -5.3273296    2.7415614    0.8143052 
H    -6.0423244    1.6112424   -0.4025595 
C    -2.6313364    2.2299938    0.1578032 
N    -4.0784360    0.3491385    0.9727497 
H    -3.7325189    0.8694005   -1.0658240 
H    -5.0309701   -0.0805092    0.8935572 
H    -3.4227261   -0.4506441    0.8089087 
O    -2.6365487    3.5614284   -0.2448157 
O    -1.4393329    1.7071975    0.6620799 
H    -1.5293166    0.7492112    0.9548595 
