13
Energy =
C    -5.1847102    2.0895602   -0.5296781 
C    -4.0423799    1.3305160    0.1599200 
H    -4.8476258    2.5260754   -1.4952475 
H    -5.5477746    2.9184082    0.1177476 
H    -6.0364412    1.4017455   -0.7227377 
C    -2.8107701    2.2075577    0.4210158 
N    -4.5834218    0.7331431    1.3900506 
H    -3.7053241    0.5191373   -0.5279718 
H    -3.8535589    0.1429124    1.8548436 
H    -4.8367270    1.4905463    2.0720625 
O    -2.9277378    3.5923029    0.4423448 
O    -1.5613230    1.6386871    0.6637391 
H    -1.6067155    0.6317149    0.6956225 
