13
Energy =
C    -5.1951093    2.1088941   -0.3753558 
C    -3.9342014    1.3245472    0.0058254 
H    -5.0124013    2.7385978   -1.2732259 
H    -5.5082552    2.7710160    0.4623578 
H    -6.0275968    1.4052292   -0.5925619 
C    -2.7583523    2.2451995    0.3058480 
N    -4.2695353    0.4482642    1.1384928 
H    -3.6235550    0.7025720   -0.8684190 
H    -3.4506610   -0.1655717    1.3628347 
H    -4.4502225    1.0304004    1.9938355 
O    -2.8863924    3.2779733    1.2256619 
O    -1.5340560    2.0334012   -0.3123678 
H    -1.0518217    1.2835265    0.1614807 
