13
Energy =
C    -5.0127844    2.1349821   -0.6348528 
C    -3.9433048    1.2377990    0.0146541 
H    -4.5969400    2.6643662   -1.5193531 
H    -5.3672898    2.8984253    0.0950816 
H    -5.8791568    1.5245551   -0.9679750 
C    -2.7098805    2.0363847    0.4237627 
N    -4.5098869    0.5206018    1.1733052 
H    -3.5988734    0.5027109   -0.7509672 
H    -5.5208814    0.7396802    1.3378153 
H    -4.4416975   -0.5133728    1.0207165 
O    -2.8347994    3.1852736    1.1970117 
O    -1.4491926    1.6549441   -0.0207767 
H    -1.3197625    1.9855682   -0.9649369 
