13
Energy =
C    -5.1871501    2.0617238   -0.3750885 
C    -3.8714657    1.2769919   -0.2373553 
H    -5.0487710    2.9314483   -1.0544741 
H    -5.5198046    2.4403255    0.6170349 
H    -5.9839426    1.4134673   -0.7975244 
C    -2.7411248    2.1575822    0.2742102 
N    -4.0849769    0.1078924    0.6296727 
H    -3.5433877    0.9271216   -1.2447368 
H    -4.3929833    0.4194161    1.5827978 
H    -4.8420201   -0.4975968    0.2336020 
O    -2.7753950    2.6741826    1.5666094 
O    -1.6960960    2.5078678   -0.5727234 
H    -1.0430823    3.0897156   -0.0641932 
