13
Energy =
C    -5.3021554    2.1853940    0.0142543 
C    -3.9709476    1.4354818   -0.1150968 
H    -5.2986610    3.1032349   -0.6131277 
H    -5.4643627    2.4830794    1.0744455 
H    -6.1462712    1.5388040   -0.3050060 
C    -2.7862775    2.3379529    0.2083967 
N    -4.0159380    0.2638378    0.7727317 
H    -3.8352226    1.1116131   -1.1753720 
H    -4.7697138   -0.3874965    0.4473385 
H    -3.1196085   -0.2727531    0.6758286 
O    -1.6319681    2.2659008   -0.5589515 
O    -2.8154200    3.1845603    1.3083025 
H    -2.5427237    2.6481837    2.1186396 
