13
Energy =
C    -5.2093538    1.9537879   -0.4687237 
C    -3.9470793    1.2654254    0.0824779 
H    -4.9978733    2.4342777   -1.4495308 
H    -5.5577509    2.7428023    0.2352207 
H    -6.0236324    1.2107737   -0.6103198 
C    -2.7835369    2.2444655    0.2074312 
N    -4.2597946    0.5663730    1.3508604 
H    -3.6078782    0.5066899   -0.6631187 
H    -3.6328163    0.8839317    2.1298687 
H    -5.2336150    0.7614770    1.6868025 
O    -2.9246387    3.4205660    0.9323034 
O    -1.5563091    1.9442395   -0.3657611 
H    -1.0609515    1.3126795    0.2466755 
