24
Energy =
C     0.3227994    2.1573103    0.6659079 
C     0.0359924    2.7293245   -0.5256919 
C     0.3371714    2.0709152   -1.6769736 
C     0.9065494    0.9334361    0.7186974 
C     1.2051533    0.2678655   -0.4307072 
C     0.9207045    0.8464585   -1.6300397 
O    -0.5647049    3.9923778   -0.5387573 
H    -0.7497448    4.3523788   -1.4686818 
H     1.1643354    0.3353423   -2.5585522 
H     1.1332438    0.4917688    1.6861541 
H     0.0801984    2.6930730    1.5772811 
H     0.1144417    2.5231278   -2.6374230 
C     1.8702248   -1.0900532   -0.3714187 
C     3.3912940   -0.9802316   -0.1344157 
H     1.6844376   -1.6578163   -1.3110870 
H     1.3952837   -1.6828855    0.4448098 
C     3.9569741   -2.3327472    0.2976076 
O     4.0667785   -2.6146896    1.6524750 
O     4.2877479   -3.3225562   -0.6246877 
H     4.1744791   -2.9750888   -1.5657829 
N     4.0367714   -0.4708629   -1.3606082 
H     3.5902670   -0.2888792    0.7208463 
H     3.7421860    0.5233500   -1.5176963 
H     5.0737687   -0.4217590   -1.2068338 
