13
UFF-Energy = 0.0720657
C    -5.3338947    2.1840024    0.5673931 
C    -4.1754492    1.6364898   -0.2882056 
H    -5.5810145    3.2251080    0.2615795 
H    -5.0546092    2.2019982    1.6441540 
H    -6.2459296    1.5622659    0.4415513 
C    -2.8980497    2.4841296   -0.1994633 
N    -3.9224818    0.2368306    0.0849343 
H    -4.4798924    1.6751961   -1.3597525 
H    -3.6966708    0.1730972    1.1073509 
H    -4.7850836   -0.3349709   -0.0790389 
O    -2.8915375    3.6706661    0.5270586 
O    -1.7362623    2.1068483   -0.8719430 
H    -1.8520646    1.2100237   -1.3227439 
