13
UFF-Energy = 0.0388801
C    -5.1653876    2.3996735   -0.1511058 
C    -4.0207370    1.3819657   -0.1208887 
H    -4.9948295    3.1586973   -0.9451975 
H    -5.2453609    2.9206253    0.8285127 
H    -6.1271701    1.8802068   -0.3512761 
C    -2.6802940    2.0493878    0.1458063 
N    -4.3516699    0.3517843    0.8764838 
H    -3.9279353    0.9099352   -1.1293763 
H    -3.6121526   -0.3910379    0.8624517 
H    -4.3196265    0.7738771    1.8372728 
O    -2.4081769    2.6274870    1.3809419 
O    -1.7242645    2.1036347   -0.8588017 
H    -0.9069552    2.5858577   -0.5062197 
