13
UFF-Energy = 0.0427279
C    -5.2312642    2.1261909    0.5185186 
C    -4.0546896    1.4884362   -0.2413107 
H    -5.3647597    3.1851256    0.2045896 
H    -5.0404822    2.1089027    1.6145778 
H    -6.1750683    1.5797339    0.3080549 
C    -2.7595067    2.2590716   -0.0285675 
N    -3.9163155    0.0807160    0.1593060 
H    -4.2560853    1.5345798   -1.3375267 
H    -3.7099589    0.0268624    1.1864222 
H    -4.8162865   -0.4268726   -0.0084355 
O    -2.2097474    2.9999898   -1.0687159 
O    -2.1427351    2.2801652    1.2171499 
H    -1.3042406    2.8412733    1.1483877 
