13
UFF-Energy = 0.0668437
C    -5.2668022    2.2596058    0.4341377 
C    -4.0781295    1.4657752   -0.1480703 
H    -5.7327712    1.7248815    1.2919503 
H    -6.0564000    2.3924687   -0.3361504 
H    -4.9628318    3.2672454    0.7964970 
C    -2.7619460    2.2533629   -0.0970629 
N    -4.0006179    0.1696310    0.5462485 
H    -4.2704839    1.2728109   -1.2303919 
H    -3.2611948   -0.4199849    0.0932965 
H    -3.6744789    0.3190671    1.5333691 
O    -1.7874990    1.9252484    0.8378152 
O    -2.5327297    3.3264771   -0.9568050 
H    -3.3210951    3.5004480   -1.5622224 
