13
UFF-Energy = 0.0488952
C    -5.2462424    2.1762281    0.3346078 
C    -3.9621489    1.5494769   -0.2660979 
H    -5.0076752    2.9830651    1.0640623 
H    -5.8671918    1.4270115    0.8710721 
H    -5.8694034    2.6214950   -0.4705170 
C    -2.6901965    2.2125640    0.2465971 
N    -3.9454690    0.1004986   -0.0170840 
H    -3.9504952    1.7187461   -1.3690373 
H    -3.9351117   -0.0748203    1.0173173 
H    -4.8139969   -0.3353496   -0.4067477 
O    -1.8943366    2.9586769   -0.6155004 
O    -2.3355440    2.1233948    1.5876940 
H    -1.4638884    2.6185377    1.7210788 
