13
UFF-Energy = 0.0409561
C    -5.2783061    2.2368653    0.6323751 
C    -4.1181822    1.5973999   -0.1499926 
H    -5.0219343    2.3022434    1.7131743 
H    -6.2032464    1.6333270    0.5122089 
H    -5.4787394    3.2645091    0.2565403 
C    -2.8666684    2.4627883   -0.0743972 
N    -3.8972185    0.2031263    0.3025611 
H    -4.3845901    1.5769554   -1.2335929 
H    -2.9255160    0.0759556    0.6798463 
H    -4.5366208   -0.0703825    1.0854452 
O    -2.0888812    2.4867736    1.0778399 
O    -2.5239302    3.2811822   -1.1408434 
H    -1.6775464    3.7826655   -0.9025067 
