13
UFF-Energy = 0.057425
C    -5.0123443    2.2015856   -0.4752582 
C    -3.9002628    1.2973056    0.0990960 
H    -5.8900690    2.2490373    0.2056503 
H    -5.3687519    1.8060885   -1.4500153 
H    -4.6634012    3.2465523   -0.6365295 
C    -2.5760683    2.0450572    0.2970927 
N    -4.3857692    0.6966836    1.3514659 
H    -3.7101975    0.4831263   -0.6382156 
H    -3.6893632   -0.0116526    1.6859024 
H    -4.4245240    1.4362205    2.0973013 
O    -2.5790460    3.2801159    0.9324577 
O    -1.3549231    1.4978578   -0.0954339 
H    -1.4479096    0.5736289   -0.4874114 
