13
UFF-Energy = 0.0844432
C    -5.2461945    2.0869367   -0.1876244 
C    -3.9169176    1.2995554   -0.0599263 
H    -5.9705395    1.8164538    0.6114158 
H    -5.7286245    1.8735887   -1.1658007 
H    -5.0874625    3.1870251   -0.1144205 
C    -2.7036104    2.2115786    0.0928316 
N    -4.0102433    0.3396521    1.0503537 
H    -3.7291990    0.7295564   -1.0011115 
H    -4.1551168    0.8544237    1.9535256 
H    -4.8310508   -0.2950268    0.9074743 
O    -2.5315788    2.9672283    1.2462821 
O    -1.8165937    2.3785436   -0.9633134 
H    -2.2196487    3.0158895   -1.6335780 
