13
UFF-Energy = 0.0592392
C    -5.2570497    2.1955868    0.5329272 
C    -4.0880580    1.4705639   -0.1402720 
H    -4.9966621    2.4673160    1.5801264 
H    -6.1485087    1.5307716    0.5600453 
H    -5.5194255    3.1222566   -0.0214613 
C    -2.8233791    2.3363400   -0.1699826 
N    -3.8933534    0.1884326    0.5546639 
H    -4.3588426    1.2624725   -1.2021468 
H    -3.1348007   -0.3524380    0.0736305 
H    -3.5409446    0.3637553    1.5284024 
O    -1.8480253    2.1737310    0.8064206 
O    -2.6456930    3.3238610   -1.1379135 
H    -3.4384374    3.3953376   -1.7576209 
