13
UFF-Energy = 0.0612751
C    -5.2718106    2.1186887   -0.2230267 
C    -3.9493765    1.3575443   -0.0191366 
H    -5.1702100    2.8664870   -1.0414087 
H    -5.5568286    2.6631588    0.7037743 
H    -6.0907389    1.4187659   -0.4936146 
C    -2.7715106    2.2880030    0.3066006 
N    -4.1535089    0.3280121    1.0147853 
H    -3.6619883    0.8661771   -0.9795924 
H    -4.5017607    0.7695488    1.9014134 
H    -4.8894396   -0.3510431    0.7024201 
O    -2.7957401    3.6092705   -0.1244595 
O    -1.6241689    1.8191594    0.9429665 
H    -1.7302482    0.8475555    1.1955994 
