13
UFF-Energy = 0.0691087
C    -5.2685555    2.2138382    0.7560351 
C    -4.1636236    1.6631416   -0.1620247 
H    -4.9147323    2.2432826    1.8110848 
H    -6.1767373    1.5767709    0.6934294 
H    -5.5441833    3.2483523    0.4535828 
C    -2.9347592    2.5660185   -0.1429587 
N    -3.8574915    0.2560907    0.1873474 
H    -4.5379697    1.6900996   -1.2125371 
H    -2.8405307    0.1320632    0.4172845 
H    -4.3701858   -0.0630822    1.0434323 
O    -2.1733381    2.6892353    1.0114835 
O    -2.5661634    3.2728323   -1.2785828 
H    -2.0696095    2.6540062   -1.9029813 
