13
UFF-Energy = 0.0609702
C    -5.0290795    2.4676757    0.4972293 
C    -4.0885928    1.4677599   -0.1784885 
H    -4.6794825    2.6958919    1.5277545 
H    -6.0540939    2.0427715    0.5556549 
H    -5.0678959    3.4159237   -0.0825851 
C    -2.6695980    2.0216744   -0.2751875 
N    -4.1738045    0.1941325    0.5541128 
H    -4.4341307    1.3122207   -1.2282590 
H    -3.6161899   -0.5346008    0.0491750 
H    -3.7447935    0.3039012    1.5062901 
O    -2.3352212    2.8707716   -1.3197372 
O    -1.7225787    1.7511831    0.7054420 
H    -1.3733689    0.8132516    0.5789090 
