13
UFF-Energy = 0.0601263
C    -5.2095869    2.2561165    0.0728030 
C    -3.9790708    1.3588039   -0.0887461 
H    -5.1566744    2.8157473    1.0330533 
H    -6.1314383    1.6357902    0.0802213 
H    -5.2728939    2.9878137   -0.7614712 
C    -2.6879953    2.1664698   -0.0879499 
N    -4.0123126    0.3441860    0.9757367 
H    -4.0339319    0.8578428   -1.0851252 
H    -3.2387135   -0.3459602    0.8239917 
H    -3.8237263    0.8006353    1.9027683 
O    -2.3999382    3.0322890    0.9587282 
O    -1.7708713    2.0178641   -1.1185197 
H    -1.2389264    1.1734385   -0.9669739 
