13
UFF-Energy = 0.060225
C    -5.2435775    2.1693997    0.0522683 
C    -3.9625555    1.3408019   -0.0835894 
H    -5.3399461    2.8840703   -0.7936375 
H    -5.2321621    2.7458308    1.0038934 
H    -6.1290918    1.4982832    0.0598390 
C    -2.7210470    2.2221503   -0.1022000 
N    -3.9389081    0.3538383    1.0069051 
H    -3.9858655    0.8114271   -1.0663159 
H    -3.1255670   -0.2932003    0.8744727 
H    -3.7818024    0.8440239    1.9223971 
O    -2.4880553    3.1316701    0.9208570 
O    -1.7946783    2.1015931   -1.1281214 
H    -1.2122634    1.2957986   -0.9532471 
