13
UFF-Energy = 0.0716305
C    -5.2035448    2.2434946    0.6391725 
C    -4.1269359    1.4702467   -0.1302536 
H    -6.1621329    1.6818370    0.6339677 
H    -5.3785602    3.2441225    0.1880553 
H    -4.8869549    2.3769635    1.6991461 
C    -2.8243847    2.2762248   -0.2275436 
N    -3.9394297    0.1779117    0.5461415 
H    -4.4744516    1.2964756   -1.1756850 
H    -4.7853566   -0.4212356    0.3960670 
H    -3.1319159   -0.3359429    0.1172336 
O    -1.7688948    2.0139825    0.6381379 
O    -2.6827780    3.3019316   -1.1634038 
H    -3.5222400    3.4370011   -1.7064802 
