13
UFF-Energy = 0.0649336
C    -5.3340247    1.8533936    0.2594494 
C    -3.9170981    1.5970561   -0.2809775 
H    -5.6630327    2.8843117   -0.0017427 
H    -5.3550367    1.7545953    1.3674197 
H    -6.0574164    1.1354403   -0.1821305 
C    -2.9146047    2.6032749    0.2675298 
N    -3.5196883    0.2124481    0.0162522 
H    -3.9156629    1.7471244   -1.3867448 
H    -3.6071751    0.0315577    1.0457665 
H    -4.1727582   -0.4478587   -0.4679766 
O    -2.6388650    3.7624285   -0.4442804 
O    -2.3132731    2.4111116    1.5044025 
H    -1.5227841    1.7973516    1.3755207 
