13
UFF-Energy = 0.072081
C    -5.3443427    2.2010362    0.4471045 
C    -4.0714201    1.5496151   -0.1235350 
H    -5.2366078    2.3661868    1.5432272 
H    -6.2291628    1.5515332    0.2677990 
H    -5.5325775    3.1849818   -0.0360750 
C    -2.8555789    2.4734096    0.0387422 
N    -3.8770605    0.2070495    0.4730032 
H    -4.2057330    1.4097965   -1.2212100 
H    -2.9707352    0.1411096    0.9992683 
H    -4.6203983   -0.0378167    1.1695489 
O    -2.1298410    2.4599611    1.2241509 
O    -2.4950898    3.3841928   -0.9545366 
H    -3.1296123    3.3724934   -1.7380523 
