13
UFF-Energy = 0.0605953
C    -5.2257054    2.2478097    0.5858939 
C    -4.1151400    1.4870579   -0.1443596 
H    -6.1576000    1.6411135    0.5923938 
H    -5.4362629    3.2171326    0.0845916 
H    -4.9340210    2.4471739    1.6412513 
C    -2.8109254    2.2911018   -0.1846399 
N    -3.9631398    0.1744277    0.5034313 
H    -4.4298891    1.3267247   -1.2020974 
H    -3.2523844   -0.3895980   -0.0217987 
H    -3.5707702    0.2974925    1.4696912 
O    -1.8460532    2.0948991    0.7959910 
O    -2.5888462    3.2626104   -1.1597277 
H    -3.3756823    3.3637514   -1.7830083 
