13
UFF-Energy = 0.0569395
C    -5.0564791    2.2859640    0.6533202 
C    -4.1351503    1.3661553   -0.1562288 
H    -6.0701531    1.8397637    0.7369113 
H    -5.1516341    3.2804862    0.1630070 
H    -4.6521154    2.4287978    1.6796314 
C    -2.7776218    2.0274465   -0.4087848 
N    -4.0126692    0.0909470    0.5672015 
H    -4.5847053    1.1915256   -1.1643924 
H    -4.9516843   -0.3740718    0.6158076 
H    -3.4068271   -0.5599437    0.0108277 
O    -2.5734590    2.7129773   -1.5991738 
O    -1.7660562    2.0277084    0.5498881 
H    -2.0375952    1.4770697    1.3514813 
