13
UFF-Energy = 0.0554258
C    -5.2071250    2.3295694    0.2465815 
C    -4.0493089    1.3958262   -0.1194265 
H    -5.0128778    2.8282971    1.2218545 
H    -6.1488509    1.7462616    0.3348594 
H    -5.3397719    3.1121903   -0.5311411 
C    -2.7182080    2.1452479   -0.2514366 
N    -3.9926282    0.3272413    0.8878360 
H    -4.2824721    0.9475059   -1.1126300 
H    -3.2802628   -0.3848537    0.5979337 
H    -3.6587277    0.7216463    1.8018872 
O    -2.4282284    3.1941033    0.6133579 
O    -1.7552916    1.7589772   -1.1834460 
H    -2.0423166    0.9529842   -1.7182697 
