13
UFF-Energy = 0.139912
C    -5.2271881    2.3674563    0.2205031 
C    -4.0870353    1.3515901   -0.0096900 
H    -5.2563421    3.1235560   -0.5975620 
H    -5.0823396    2.9063589    1.1830793 
H    -6.2125519    1.8520793    0.2389066 
C    -2.7261035    2.0687944   -0.2137231 
N    -4.1604813    0.2878575    1.0283227 
H    -4.2591373    0.8668321   -1.0004181 
H    -3.2853908    0.1840602    1.5952853 
H    -4.9142700    0.4581360    1.7341993 
O    -2.6760888    3.0675251   -1.1861892 
O    -1.5437976    1.7728507    0.4869288 
H    -1.5554437    0.9929154    1.1297387 
