13
UFF-Energy = 0.07761
C    -5.3734775    2.0906942    0.2620497 
C    -4.0206192    1.4231848   -0.0730963 
H    -5.8528919    1.6163155    1.1479757 
H    -6.0756845    2.0017740   -0.5941603 
H    -5.2583572    3.1703669    0.5084055 
C    -2.8632342    2.4341940   -0.0986973 
N    -3.7976545    0.3313223    0.8885120 
H    -4.0647676    0.9978820   -1.1039162 
H    -4.4730140   -0.4450215    0.6926178 
H    -2.8391278   -0.0737159    0.7548851 
O    -1.8296909    2.3510555    0.8274372 
O    -2.8186725    3.4443959   -1.0604715 
H    -3.6209483    3.4159053   -1.6719873 
