13
UFF-Energy = 0.0697016
C    -5.0802082    1.8889112   -0.7403467 
C    -3.8673486    1.3582757    0.0280089 
H    -5.5188984    2.7611391   -0.2088264 
H    -5.8599381    1.1012048   -0.8134092 
H    -4.7888711    2.2090193   -1.7644597 
C    -2.7280559    2.3736390    0.0968567 
N    -4.3446716    0.9265212    1.3565588 
H    -3.4437868    0.4914540   -0.5364726 
H    -4.1532696   -0.0958849    1.4816718 
H    -3.8274897    1.4111754    2.1299359 
O    -1.4337208    1.9321444    0.3294394 
O    -2.9699291    3.7386417    0.0126494 
H    -3.2604921    4.0725162    0.9192787 
