13
UFF-Energy = 0.0609574
C    -5.1676781    2.2294548    0.1242568 
C    -3.9621102    1.3165501   -0.1159122 
H    -5.2601451    2.9832433   -0.6865900 
H    -5.0640407    2.7586105    1.0978589 
H    -6.0983868    1.6224056    0.1559115 
C    -2.6580602    2.1033340   -0.1555639 
N    -3.9635029    0.2766943    0.9243176 
H    -4.0691710    0.8333388   -1.1166153 
H    -3.2008660   -0.4127780    0.7186776 
H    -3.7199227    0.7059103    1.8511784 
O    -2.1567885    2.6913225    0.9982428 
O    -1.9857168    2.2826186   -1.3561816 
H    -2.4398909    3.0134221   -1.8838153 
