13
UFF-Energy = 0.0675481
C    -5.2333775    2.2894828   -0.1372556 
C    -3.9272912    1.4560627   -0.0649336 
H    -5.5404723    2.4296987   -1.1958825 
H    -5.1147188    3.3018733    0.3106578 
H    -6.0777008    1.7996699    0.3938208 
C    -2.7471064    2.2095279    0.5730872 
N    -4.2102498    0.1755217    0.6081360 
H    -3.5736226    1.2475026   -1.1036098 
H    -4.5937112    0.3511807    1.5697137 
H    -4.9415886   -0.3533104    0.0729272 
O    -2.6444444    3.5866539    0.4155238 
O    -1.7078564    1.5413031    1.2179815 
H    -1.8689900    0.5452211    1.2219429 
