13
UFF-Energy = 0.0481168
C    -5.2620484    2.0661861    0.5127567 
C    -4.0239917    1.5385661   -0.2562209 
H    -5.7409971    1.2755294    1.1293095 
H    -6.0225031    2.4491650   -0.2011842 
H    -4.9941479    2.8984461    1.2026475 
C    -2.7526286    2.3067732    0.0805250 
N    -3.8563071    0.0983297   -0.0124775 
H    -4.1749969    1.6970208   -1.3504963 
H    -3.6942477   -0.0653767    1.0110529 
H    -4.7305548   -0.4100339   -0.2835144 
O    -2.1280650    3.0848790   -0.8877098 
O    -2.2287649    2.2798732    1.3677232 
H    -1.3862468    2.8392169    1.3808256 
