13
UFF-Energy = 0.041937
C    -5.2985864    2.2942083    0.4766225 
C    -4.0905742    1.5650436   -0.1372503 
H    -5.4353132    3.2891043   -0.0025696 
H    -5.1400509    2.4493107    1.5667817 
H    -6.2253629    1.7010591    0.3233703 
C    -2.8289274    2.4135521   -0.0335654 
N    -3.9450488    0.2158261    0.4592425 
H    -4.2620122    1.4466779   -1.2336915 
H    -3.0153619    0.1097402    0.9356913 
H    -4.6590014    0.0275314    1.2018285 
O    -2.1244905    2.4988223    1.1621534 
O    -2.4077579    3.1624840   -1.1227581 
H    -1.5683322    3.6646991   -0.8621923 
