13
UFF-Energy = 0.0538792
C    -5.3360336    2.1404141    0.6186530 
C    -4.1405207    1.5783105   -0.1916143 
H    -5.6902755    1.4252562    1.3917730 
H    -6.1887201    2.3593154   -0.0591271 
H    -5.0699094    3.0846993    1.1461227 
C    -2.9074404    2.4676705   -0.1081981 
N    -3.8419576    0.2042571    0.2405557 
H    -4.4028646    1.5605761   -1.2764071 
H    -3.5735234    0.2038492    1.2548301 
H    -4.6945391   -0.3943585    0.1342348 
O    -2.2553260    2.6615239    1.1058190 
O    -2.4607449    3.1461545   -1.2354449 
H    -1.6344844    3.6761067   -0.9898064 
