13
UFF-Energy = 0.0850758
C    -5.2623013    2.2258390    0.7234235 
C    -4.1127746    1.6213788   -0.1308474 
H    -4.9080138    3.0785264    1.3449143 
H    -5.7263090    1.5026986    1.4251730 
H    -6.0731521    2.6035370    0.0635550 
C    -2.8154934    2.4157446    0.0118750 
N    -3.9396031    0.1710598    0.1307408 
H    -4.3732537    1.7343316   -1.2108324 
H    -2.9688620   -0.0441411    0.4693400 
H    -4.5773311   -0.2039629    0.8689041 
O    -1.9857369    2.2240323    1.1088546 
O    -2.4958255    3.3999936   -0.9133421 
H    -3.0430033    4.2252811   -0.7182577 
