13
UFF-Energy = 0.0729616
C    -5.2154054    2.2460775    0.4232638 
C    -4.0404236    1.5048231   -0.2611711 
H    -5.7558808    1.6015324    1.1491598 
H    -5.9490616    2.5852891   -0.3395096 
H    -4.8675673    3.1478646    0.9776118 
C    -2.7034202    2.2027969   -0.0419510 
N    -4.0002672    0.1034576    0.1853739 
H    -4.1929730    1.5211783   -1.3670294 
H    -3.9226290    0.0669967    1.2310098 
H    -4.8973346   -0.3699548   -0.0770288 
O    -2.2239354    3.0958714   -0.9903606 
O    -1.9839242    2.0117772    1.1300917 
H    -1.4359478    1.1707750    1.0261981 
