13
UFF-Energy = 0.0399485
C    -5.3046087    2.2334973    0.2385642 
C    -4.0132483    1.5061596   -0.1562432 
H    -6.1908887    1.7059261   -0.1717927 
H    -5.2981275    3.2780495   -0.1407959 
H    -5.3871233    2.2651420    1.3481894 
C    -2.7657480    2.2655063    0.2861613 
N    -4.0567007    0.1539525    0.4190587 
H    -3.9551801    1.4452166   -1.2685530 
H    -4.8176621   -0.3932032   -0.0479044 
H    -3.1619842   -0.3438199    0.1903985 
O    -1.5486338    2.0101827   -0.3350997 
O    -2.8168897    3.2087994    1.3069480 
H    -1.8827149    3.5645840    1.4614200 
