13
UFF-Energy = 0.0806449
C    -5.2823048    2.3645840   -0.0045650 
C    -4.0419518    1.4277071   -0.0579618 
H    -6.0386216    2.0698973    0.7518963 
H    -5.7982908    2.3684717   -0.9901071 
H    -4.9974796    3.4185587    0.2147556 
C    -2.7237746    2.1981944    0.0674024 
N    -4.1555904    0.3150055    0.9154298 
H    -3.9882432    0.9731118   -1.0782487 
H    -3.3606977    0.3022739    1.6004571 
H    -5.0393991    0.3210172    1.4746606 
O    -1.8470860    2.2323364   -1.0089695 
O    -2.3873476    2.8812494    1.2355909 
H    -3.1168527    2.8049918    1.9286926 
