13
UFF-Energy = 0.0726256
C    -5.1295022    2.3022567   -0.1412771 
C    -3.9728715    1.3038846    0.0485936 
H    -5.1161402    3.0649989    0.6701554 
H    -6.1058185    1.7709878   -0.1197219 
H    -5.0414046    2.8259915   -1.1177787 
C    -2.6190468    1.9991684   -0.0564497 
N    -4.1463304    0.5546611    1.3149266 
H    -3.9852700    0.5696824   -0.7922590 
H    -3.3425856    0.7188273    1.9706696 
H    -5.0022695    0.8460374    1.8435666 
O    -2.1548329    2.7963221    0.9817483 
O    -1.8733353    1.9047260   -1.2233060 
H    -2.2624126    2.5274948   -1.9154914 
