13
UFF-Energy = 0.0741121
C    -5.3843502    2.1034722    0.4580661 
C    -4.1026899    1.5253861   -0.1672948 
H    -5.2490124    2.2656003    1.5515554 
H    -6.2433342    1.4143720    0.3064354 
H    -5.6387602    3.0805800   -0.0085874 
C    -2.9140842    2.4828483   -0.0205019 
N    -3.8217173    0.2136076    0.4343987 
H    -4.2622140    1.3802774   -1.2606836 
H    -3.6723194    0.3160998    1.4681872 
H    -4.6390265   -0.4274251    0.2998528 
O    -2.2098943    2.5302138    1.1778878 
O    -2.5653752    3.3746211   -1.0369858 
H    -3.1765422    3.3052116   -1.8359544 
