13
UFF-Energy = 0.0782691
C    -5.2235286    2.0728705   -0.2342549 
C    -3.9272898    1.2768277    0.0019715 
H    -5.3828079    2.8095812    0.5858239 
H    -6.1000425    1.3908998   -0.2738137 
H    -5.1727977    2.6265215   -1.1969431 
C    -2.6977070    2.1780694    0.0086678 
N    -4.0467137    0.5145386    1.2538026 
H    -3.7688759    0.5622947   -0.8404217 
H    -4.1683515    1.1713782    2.0631925 
H    -4.8895323   -0.1059411    1.2200726 
O    -2.4896784    3.0776707    1.0474821 
O    -1.8288106    2.1835284   -1.0752264 
H    -2.2368440    2.7281154   -1.8200369 
