13
UFF-Energy = 0.0816712
C    -5.3443811    2.2496593    0.4273338 
C    -4.0705959    1.4960577   -0.0483562 
H    -5.8369106    1.7909573    1.3095364 
H    -6.1002393    2.2799455   -0.3871859 
H    -5.1172390    3.3028712    0.7109158 
C    -2.8477251    2.4250642   -0.1128160 
N    -3.8354842    0.2664942    0.7481743 
H    -4.2315602    1.1657309   -1.1010958 
H    -2.8962168    0.2764627    1.2172428 
H    -4.5278083    0.1212883    1.5177587 
O    -2.0159426    2.5581769    0.9927302 
O    -2.5898614    3.2065488   -1.2391517 
H    -3.2979955    3.1033419   -1.9498590 
