13
UFF-Energy = 0.0413257
C    -5.1934827    2.2879210    0.4696163 
C    -4.0408909    1.4913168   -0.1669325 
H    -6.1632428    1.7782150    0.2846354 
H    -5.2459034    3.3102481    0.0329716 
H    -5.0344733    2.3837684    1.5663905 
C    -2.7151160    2.2303381   -0.0151921 
N    -4.0126824    0.1085687    0.3672184 
H    -4.2119179    1.4366920   -1.2681131 
H    -3.0941172   -0.0940043    0.8347775 
H    -4.7329982   -0.0430818    1.1116317 
O    -2.2934610    3.1065484   -1.0067962 
O    -1.9455143    2.0857069    1.1325760 
H    -1.1299801    2.6796817    1.0485148 
