13
UFF-Energy = 0.0605871
C    -5.1081557    2.3615130    0.0085117 
C    -4.0025998    1.3028022   -0.0189493 
H    -4.9256269    3.0898156    0.8300049 
H    -6.0907122    1.8738110    0.1893538 
H    -5.1526805    2.9104691   -0.9562814 
C    -2.6291884    1.9264332   -0.2346925 
N    -4.0833985    0.5290086    1.2292278 
H    -4.1769014    0.6201977   -0.8851544 
H    -3.3947790   -0.2604642    1.1861878 
H    -3.7792979    1.1297392    2.0351365 
O    -2.0339791    2.6804479    0.7680122 
O    -1.9845589    1.7918987   -1.4561249 
H    -2.3849618    2.4438049   -2.1144718 
