13
UFF-Energy = 0.0671105
C    -5.2243193    2.1939323    0.4586983 
C    -4.0457658    1.5262889   -0.2692829 
H    -6.1759458    1.6723934    0.2216540 
H    -5.3210221    3.2565383    0.1408185 
H    -5.0661648    2.1751625    1.5596514 
C    -2.7366201    2.2605955   -0.0127261 
N    -3.9647411    0.1104068    0.1212954 
H    -4.2137482    1.5906143   -1.3706561 
H    -3.8992517    0.0329684    1.1654736 
H    -4.8429281   -0.3817165   -0.1681800 
O    -2.3128696    3.2464883   -0.8934622 
O    -1.9859820    2.0043181    1.1270458 
H    -1.3988513    1.2051548    0.9403296 
