13
UFF-Energy = 0.032709
C    -5.0777315    1.7531889   -0.6031416 
C    -3.7400835    1.3955960    0.0535065 
H    -5.6346261    2.4581486    0.0532111 
H    -5.6960530    0.8446952   -0.7542318 
H    -4.9107945    2.2492345   -1.5835268 
C    -2.8366210    2.6132217    0.2217543 
N    -4.0304150    0.7468964    1.3421069 
H    -3.1754714    0.6997949   -0.6115948 
H    -4.4074009   -0.2141258    1.1685051 
H    -3.1342304    0.6151346    1.8736232 
O    -1.5213062    2.4381655    0.6345945 
O    -3.2903289    3.8976614   -0.0555415 
H    -2.5413375    4.5502352    0.1367773 
