13
UFF-Energy = 0.0868173
C    -5.2348723    1.8823505   -0.5676048 
C    -4.0182099    1.3280981    0.2270773 
H    -5.6277794    1.1043910   -1.2574916 
H    -4.9516837    2.7605455   -1.1916776 
H    -6.0798007    2.2094026    0.0715644 
C    -2.7133294    2.0387463   -0.1317462 
N    -4.2821822    1.3033971    1.6866096 
H    -3.8407557    0.2743804   -0.0992515 
H    -3.5815074    1.8691020    2.2226481 
H    -5.2243178    1.6702924    1.9531787 
O    -1.5668834    1.2978350   -0.3803953 
O    -2.6408833    3.4258810   -0.1643780 
H    -2.5326949    3.7736070    0.7757607 
