13
UFF-Energy = 0.0789094
C    -5.1854901    2.1527118   -0.2829853 
C    -3.9372813    1.2833880   -0.0458890 
H    -5.0436314    2.8096111   -1.1686273 
H    -5.3849517    2.7973304    0.6030198 
H    -6.0770953    1.5150333   -0.4655550 
C    -2.6830604    2.1272916    0.1517628 
N    -4.1763360    0.3919735    1.0989942 
H    -3.7385252    0.6609819   -0.9504907 
H    -4.3410273    0.9592901    1.9663784 
H    -5.0328376   -0.1871093    0.9328745 
O    -2.5222377    2.8920781    1.3011095 
O    -1.7378256    2.2224760   -0.8619258 
H    -2.0721204    2.8659486   -1.5633450 
