13
UFF-Energy = 0.0373292
C    -5.2718501    1.9196140   -0.4714635 
C    -3.9501328    1.3499952    0.0516552 
H    -5.1514819    2.2993530   -1.5089233 
H    -5.6109416    2.7573823    0.1775836 
H    -6.0535063    1.1300081   -0.4650004 
C    -2.8504462    2.4030326    0.0696792 
N    -4.1980700    0.7708125    1.3807110 
H    -3.6044302    0.5481632   -0.6445837 
H    -3.3224375    0.3053451    1.7202081 
H    -4.3956619    1.5446411    2.0619766 
O    -1.7170322    2.2393281   -0.7169590 
O    -2.9703775    3.5350320    0.8669493 
H    -2.1474818    4.1107973    0.7418367 
