13
UFF-Energy = 0.0751183
C    -5.1373862    2.3776921   -0.3099208 
C    -3.9962604    1.3783639   -0.0437201 
H    -5.4032837    2.9390492    0.6119718 
H    -6.0436024    1.8456177   -0.6731432 
H    -4.8360639    3.1134476   -1.0896206 
C    -2.6936016    2.0647152    0.3789230 
N    -4.4432831    0.3741106    0.9356039 
H    -3.7413186    0.8600105   -1.0007974 
H    -4.8837756    0.8313734    1.7688470 
H    -5.1818686   -0.2299449    0.5019579 
O    -1.6223355    2.0819265   -0.5062534 
O    -2.5631433    2.7249911    1.6009036 
H    -3.3990772    2.6383121    2.1554297 
