13
UFF-Energy = 0.0575198
C    -5.1945501    2.1938970    0.7845268 
C    -4.1537190    1.6381606   -0.1906565 
H    -6.1365089    1.6102153    0.7056682 
H    -5.4127555    3.2602072    0.5570865 
H    -4.8210517    2.1250927    1.8299471 
C    -2.8545015    2.4324019   -0.1299375 
N    -3.9605262    0.2113855    0.1088538 
H    -4.5506354    1.7460239   -1.2277154 
H    -3.3259171   -0.2098406   -0.6102539 
H    -3.4668251    0.1099292    1.0303601 
O    -2.0715885    2.4100705    1.0164132 
O    -2.4546559    3.2050207   -1.2106581 
H    -2.0229051    2.6082330   -1.9008619 
