13
Energy =
C    -5.2035285    2.1211585    0.3720362 
C    -3.9689356    1.3920303   -0.1880842 
H    -5.1120684    2.2716672    1.4694379 
H    -6.1232684    1.5301039    0.1727252 
H    -5.3226714    3.1140017   -0.1173993 
C    -2.6990127    2.2252604   -0.0587748 
N    -3.8332981    0.0833830    0.4680082 
H    -4.1020606    1.2324368   -1.2849803 
H    -3.6800245    0.2109603    1.4972583 
H    -4.7113331   -0.4734108    0.3437082 
O    -2.2317900    2.9408022   -1.1525950 
O    -2.0623729    2.3791120    1.1670034 
H    -2.5786157    3.0450595    1.7192486 
