13
Energy =
C    -5.4018919    1.8313335    0.3139813 
C    -4.0018945    1.4696642   -0.1969799 
H    -5.3537597    2.0695323    1.4008258 
H    -6.1004869    0.9802575    0.1723181 
H    -5.8011676    2.7166272   -0.2265057 
C    -3.0400378    2.6459098   -0.0984168 
N    -3.5216540    0.3094105    0.5683155 
H    -4.0582813    1.2193909   -1.2838383 
H    -4.0975024   -0.5295080    0.3212483 
H    -2.5402203    0.0842130    0.2736828 
O    -3.0919576    3.5321230    0.9736430 
O    -2.0753303    2.8243023   -1.0821873 
H    -1.5149155    3.6338329   -0.8474657 
