13
Energy =
C    -5.1646346    2.1988655   -0.2358051 
C    -3.8576196    1.4096208   -0.1089375 
H    -5.5209150    2.5199185    0.7676605 
H    -5.9481105    1.5616205   -0.6995480 
H    -5.0169085    3.1027504   -0.8665226 
C    -2.7530191    2.2490959    0.5208272 
N    -4.1395033    0.1743143    0.6406765 
H    -3.4945764    1.1481029   -1.1319320 
H    -3.2525861   -0.3746601    0.7450867 
H    -4.4214837    0.4276080    1.6194320 
O    -1.9074736    2.9969941   -0.2889491 
O    -2.6005579    2.3052206    1.9009482 
H    -1.8357018    2.9306530    2.1202656 
