13
Energy =
C    -5.3990009    1.6249163    0.2249153 
C    -3.9188095    1.4108076   -0.1093298 
H    -5.9315489    0.6493239    0.2283539 
H    -5.8773283    2.2921041   -0.5247255 
H    -5.5063674    2.0862581    1.2316534 
C    -3.1447354    2.7201514   -0.1190667 
N    -3.3717875    0.4354449    0.8473000 
H    -3.8360824    1.0056570   -1.1476069 
H    -2.3724391    0.2344508    0.6026824 
H    -3.3546175    0.8621335    1.8063354 
O    -2.9458772    3.4363701    1.0562392 
O    -2.6364151    3.2124431   -1.3130177 
H    -2.1629808    4.0883036   -1.1298578 
