13
Energy =
C    -5.3991982    1.8216344    0.3321308 
C    -4.0049919    1.4726162   -0.2029049 
H    -6.0979530    0.9719697    0.1829643 
H    -5.8067657    2.7162033   -0.1864484 
H    -5.3379488    2.0392485    1.4226375 
C    -3.0440256    2.6487517   -0.0940324 
N    -3.5132442    0.2991096    0.5343185 
H    -4.0744750    1.2427162   -1.2934980 
H    -4.0908371   -0.5360606    0.2787616 
H    -2.5352962    0.0812731    0.2230386 
O    -3.0845455    3.5147165    0.9949463 
O    -2.0915247    2.8473318   -1.0858087 
H    -1.5297541    3.6534589   -0.8427837 
