13
Energy =
C    -5.3970860    1.6362371    0.2504483 
C    -3.9261970    1.4201674   -0.1214507 
H    -5.8854428    2.3285432   -0.4693575 
H    -5.4791755    2.0692110    1.2720506 
H    -5.9377521    0.6651996    0.2373347 
C    -3.1412360    2.7229708   -0.1094466 
N    -3.3675349    0.4127945    0.7943926 
H    -3.8688747    1.0450712   -1.1726566 
H    -2.3752679    0.2113180    0.5228422 
H    -3.3265667    0.8110195    1.7648857 
O    -2.9096908    3.4016483    1.0820388 
O    -2.6557934    3.2471344   -1.2993427 
H    -2.1708721    4.1133096   -1.1008046 
