13
Energy =
C    -5.2717253    2.2752182    0.0401692 
C    -3.9794426    1.4642574   -0.1085468 
H    -6.1291172    1.7302067   -0.4063011 
H    -5.1724423    3.2652906   -0.4546039 
H    -5.4780128    2.4440458    1.1207665 
C    -2.7608286    2.2245353    0.4076842 
N    -4.1641107    0.1866001    0.5961962 
H    -3.7848306    1.2798690   -1.1915796 
H    -4.8632886   -0.3955844    0.0776576 
H    -3.2648286   -0.3540848    0.5715879 
O    -1.4847490    1.7882862    0.0696086 
O    -2.8998637    3.3554941    1.2060186 
H    -1.9785701    3.6883450    1.4587750 
