13
Energy =
C    -5.4272615    1.7843284    0.1329275 
C    -3.9655282    1.4375101   -0.2040745 
H    -6.0846060    0.9014947   -0.0180973 
H    -5.7914305    2.6046088   -0.5244653 
H    -5.5150991    2.1201693    1.1904968 
C    -3.0476176    2.6440524   -0.0726820 
N    -3.5211753    0.3223245    0.6461443 
H    -3.8911667    1.1339713   -1.2759964 
H    -3.5749517    0.6023972    1.6559769 
H    -4.1546371   -0.5011293    0.5151982 
O    -2.8021633    3.2165830    1.1723765 
O    -2.4866061    3.2149772   -1.2089330 
H    -1.9116370    3.9995374   -0.9306064 
