13
Energy =
C    -5.2286757    2.0229616   -0.5522120 
C    -3.9782327    1.3277589    0.0142319 
H    -5.5703920    2.8250292    0.1403156 
H    -6.0532215    1.2926489   -0.6944604 
H    -5.0000245    2.4880286   -1.5360343 
C    -2.8149240    2.2977699    0.1764302 
N    -4.3164727    0.6755127    1.2878510 
H    -3.6301023    0.5523976   -0.7082705 
H    -4.6263090    1.3978259    1.9829457 
H    -5.1105368    0.0074752    1.1487271 
O    -1.6310541    2.0945218   -0.5251079 
O    -2.9386758    3.4151253    0.9968745 
H    -2.0661589    3.9267693    0.9850099 
