13
Energy =
C    -5.2742223    2.1185642   -0.2181065 
C    -3.9524554    1.3550295   -0.0188593 
H    -6.0956392    1.4198813   -0.4843322 
H    -5.1746588    2.8651246   -1.0378630 
H    -5.5542669    2.6647134    0.7092263 
C    -2.7712891    2.2834983    0.3006290 
N    -4.1542577    0.3272221    1.0172380 
H    -3.6702083    0.8618264   -0.9798942 
H    -4.4979008    0.7705355    1.9047703 
H    -4.8928537   -0.3507569    0.7088258 
O    -2.7947653    3.6043341   -0.1318237 
O    -1.6221167    1.8130660    0.9325123 
H    -1.7291959    0.8420296    1.1869396 
