13
Energy =
C    -5.3438907    2.1176647    0.5350850 
C    -4.1143876    1.5590269   -0.2022053 
H    -5.5913163    3.1347988    0.1578840 
H    -5.1426642    2.1894374    1.6269167 
H    -6.2258567    1.4622327    0.3738167 
C    -2.9103323    2.4801243   -0.0699742 
N    -3.8202235    0.2047267    0.2903348 
H    -4.3291078    1.5089198   -1.2959420 
H    -3.6009175    0.2394047    1.3156525 
H    -4.6588847   -0.4097957    0.1674021 
O    -2.2621206    2.6310006    1.1523781 
O    -2.4943116    3.2378489   -1.1577618 
H    -1.6879665    3.7839853   -0.8829833 
