13
UFF-Energy = 0.0594624
C    -5.2551192    1.9978368   -0.3042244 
C    -3.8752477    1.3524585   -0.0840503 
H    -5.1828945    2.8296861   -1.0399827 
H    -5.6486955    2.4155600    0.6481582 
H    -5.9783872    1.2510523   -0.6952022 
C    -2.8240806    2.3512389    0.4209641 
N    -4.0278671    0.2007312    0.8210355 
H    -3.4850139    0.9969002   -1.0668905 
H    -4.4784500    0.5011029    1.7204033 
H    -4.6585307   -0.5137350    0.3835918 
O    -3.0026044    3.7131824    0.2062829 
O    -1.6415893    1.9228466    1.0204356 
H    -1.6385999    0.9180505    1.1206379 
