13
UFF-Energy = 0.0635169
C    -5.2140614    2.2536999   -0.0644448 
C    -3.9619113    1.3680584   -0.0896152 
H    -5.1509219    3.0489088   -0.8387570 
H    -5.3107428    2.7391027    0.9332161 
H    -6.1253851    1.6470519   -0.2486185 
C    -2.6740139    2.1890724    0.0613543 
N    -4.0989866    0.3642047    0.9761194 
H    -3.9080399    0.8644393   -1.0829841 
H    -4.8771959   -0.2954681    0.7368995 
H    -3.2297450   -0.2191338    1.0329859 
O    -2.7123844    3.4599888    0.6254660 
O    -1.4437137    1.6786318   -0.3542094 
H    -1.5268079    0.7411764   -0.7170060 
