24
Energy =
C     1.6198308    2.5320945    0.7085092 
C     0.3219764    2.7871116    0.4240422 
C    -0.3920287    1.9128808   -0.3218698 
C     2.2076212    1.3973478    0.2516999 
C     1.4965372    0.5139291   -0.5025350 
C     0.1888094    0.7751474   -0.7815056 
O    -0.2779284    3.9510935    0.8945245 
H    -0.6838159    3.7986604    1.8111985 
H    -0.3991534    0.0782653   -1.3736657 
H     3.2472259    1.1965019    0.4976449 
H     2.1814197    3.2432426    1.3040174 
H    -1.4302699    2.1323372   -0.5475640 
C     2.1411126   -0.7629803   -0.9938838 
C     1.9817069   -1.9063995    0.0276146 
H     3.2227881   -0.5972788   -1.2007093 
H     1.6911275   -1.0578103   -1.9688360 
C     2.3681284   -3.2428149   -0.5838592 
O     1.4920439   -4.3181014   -0.5138416 
O     3.6032478   -3.4081691   -1.1971077 
H     3.6776377   -4.3612981   -1.5297458 
N     2.7755053   -1.5989120    1.2323934 
H     0.9038857   -1.9960247    0.3026165 
H     2.6132713   -2.3471727    1.9489059 
H     3.7949665   -1.6487522    0.9900684 
