24
Energy =
C     0.7446463    2.1723804    0.7895253 
C    -0.3520419    2.2783942    0.0044952 
C    -0.5973776    1.3467069   -0.9455071 
C     1.5957594    1.1268159    0.6340890 
C     1.3495458    0.1790111   -0.3132005 
C     0.2505976    0.2991730   -1.1085343 
O    -1.2213807    3.3522755    0.1650719 
H    -1.9462844    3.1290975    0.8382027 
H     0.0447084   -0.4393501   -1.8791952 
H     2.4790395    1.0591575    1.2663119 
H     0.9382063    2.9350161    1.5362819 
H    -1.4734428    1.4511182   -1.5771158 
C     2.3130307   -0.9695767   -0.5137474 
C     3.3523516   -0.6653066   -1.6113838 
H     1.7451551   -1.8888000   -0.7782775 
H     2.8459195   -1.2058160    0.4373490 
C     4.2071976    0.5453776   -1.2556816 
O     4.9893939    0.5545129   -0.1073741 
O     4.1673153    1.6806195   -2.0553180 
H     3.3307538    2.2044953   -1.8408023 
N     4.1744032   -1.8707857   -1.8148296 
H     2.8296251   -0.4006529   -2.5608256 
H     3.5929298   -2.6213163   -2.2566595 
H     4.9470533   -1.6591341   -2.4917198 
