24
Energy =
C     0.8029191    2.1588544    0.8062548 
C    -0.3045785    2.2929069    0.0290482 
C    -0.5671097    1.3712386   -0.9254329 
C     1.6386269    1.1051148    0.6263115 
C     1.3719394    0.1736272   -0.3307585 
C     0.2664150    0.3162186   -1.1113580 
O    -1.1857601    3.3669337    0.1868541 
H    -0.9206393    4.0142495    0.9216694 
H     0.0413346   -0.4116230   -1.8866374 
H     2.5263764    1.0160190    1.2498857 
H     1.0251981    2.8950091    1.5713844 
H    -1.4529935    1.4919665   -1.5396393 
C     2.3185026   -0.9847712   -0.5555248 
C     3.3462827   -0.6832801   -1.6646784 
H     1.7357587   -1.8946538   -0.8201786 
H     2.8617542   -1.2366040    0.3857348 
C     4.2148743    0.5190130   -1.3140484 
O     5.0193410    0.5125487   -0.1813142 
O     4.1627278    1.6637199   -2.0994476 
H     3.3325551    2.1874350   -1.8618169 
N     4.1561872   -1.8941224   -1.8839413 
H     2.8138594   -0.4101555   -2.6062533 
H     3.5633155   -2.6384224   -2.3211874 
H     4.9218031   -1.6856195   -2.5697332 
