24
Energy =
C     1.7807827    2.8685490   -0.2005268 
C     1.1244008    3.2512440   -1.3280996 
C     0.5272534    2.3178491   -2.1035251 
C     1.8311134    1.5563593    0.1471356 
C     1.2218706    0.6173134   -0.6283617 
C     0.5764869    1.0051007   -1.7620054 
O     1.0501727    4.5932585   -1.7126675 
H     1.5372483    5.2310195   -1.0924391 
H     0.0973276    0.2696172   -2.4034946 
H     2.3747895    1.2538490    1.0426688 
H     2.2709828    3.6111668    0.4204392 
H     0.0128233    2.6361954   -3.0040236 
C     1.2948619   -0.8480031   -0.2560843 
C     2.5468968   -1.5328242   -0.8530271 
H     0.3783063   -1.3673538   -0.6126609 
H     1.3063314   -0.9685733    0.8516948 
C     3.8398994   -0.9670976   -0.2833129 
O     4.9461637   -0.7846630   -1.1035300 
O     3.9297065   -0.6108883    1.0614891 
H     4.8944856   -0.3715297    1.2603666 
N     2.4673284   -2.9871392   -0.6339357 
H     2.5894708   -1.3383520   -1.9495823 
H     2.4428240   -3.1885561    0.3949317 
H     1.5929033   -3.3716720   -1.0616536 
