24
Energy =
C     1.5387888    2.3610184    0.6744634 
C     0.2241399    2.6074650    0.4285515 
C    -0.5212202    1.6790531   -0.2130569 
C     2.0990388    1.1900450    0.2784051 
C     1.3480603    0.2534498   -0.3636273 
C     0.0338310    0.5064542   -0.6111299 
O    -0.3835594    3.8045267    0.8211848 
H     0.2388184    4.4456922    1.3008796 
H    -0.5794027   -0.2253034   -1.1317378 
H     3.1518015    1.0076024    0.4794351 
H     2.1449070    3.1000605    1.1870844 
H    -1.5679085    1.8882320   -0.4049499 
C     1.9771747   -1.0439033   -0.8202800 
C     2.7522766   -0.8808803   -2.1473439 
H     1.2027040   -1.8348835   -0.9484072 
H     2.6568731   -1.4186697   -0.0213335 
C     3.6499239   -2.0803635   -2.4226281 
O     3.3978134   -3.3217621   -1.8454945 
O     4.7411882   -1.9409720   -3.2702149 
H     5.2012424   -2.8384219   -3.3527335 
N     1.7928735   -0.6697317   -3.2455879 
H     3.4421418   -0.0079402   -2.0715456 
H     1.3577451    0.2766174   -3.1414249 
H     2.3133983   -0.6406311   -4.1554124 
