24
Energy =
C     1.5310965    2.7002506    0.3808610 
C     0.5346884    3.1229284   -0.4423664 
C    -0.0675314    2.2399857   -1.2708268 
C     1.9166080    1.3988535    0.3728387 
C     1.3031115    0.5064249   -0.4532504 
C     0.3131559    0.9374488   -1.2821469 
O     0.1128196    4.4561205   -0.4589869 
H     0.6157991    5.0567158    0.1852768 
H    -0.1716246    0.2443783   -1.9644836 
H     2.7208883    1.0773294    1.0300895 
H     2.0241099    3.4023063    1.0446478 
H    -0.8549495    2.5919155   -1.9282567 
C     1.7478471   -0.9402418   -0.4804000 
C     2.8502683   -1.1675374   -1.5359280 
H     0.8740513   -1.5969684   -0.6846158 
H     2.1236528   -1.2296282    0.5279254 
C     3.5830739   -2.4931465   -1.3255582 
O     4.9581416   -2.4815914   -1.1344221 
O     2.9169650   -3.7193869   -1.3240841 
H     1.9236049   -3.6145745   -1.4543492 
N     2.2721529   -1.0456286   -2.8874162 
H     3.6253213   -0.3749026   -1.4038691 
H     3.0501507   -1.0281187   -3.5903761 
H     1.6838186   -1.8818887   -3.1135100 
