24
Energy =
C     1.7386456    2.4129121    0.9157267 
C     0.4327531    2.4614125    1.2661995 
C    -0.4325063    1.5404726    0.7830558 
C     2.1831052    1.4467239    0.0718191 
C     1.3152390    0.5227712   -0.4275309 
C     0.0040649    0.5713231   -0.0612759 
O    -0.0180548    3.4512647    2.1334293 
H    -0.2952149    4.2797903    1.6185905 
H    -0.7021190   -0.1653522   -0.4376419 
H     3.2377521    1.4107595   -0.1922085 
H     2.4230078    3.1487923    1.3242350 
H    -1.4746119    1.5825899    1.0825752 
C     1.8064417   -0.5695546   -1.3512996 
C     2.0980361   -1.8817488   -0.5959156 
H     2.7292862   -0.2507594   -1.8869777 
H     1.0443486   -0.7485829   -2.1437788 
C     2.2945753   -3.0233525   -1.5801962 
O     1.7399392   -4.2671177   -1.3173661 
O     3.0634084   -2.8521287   -2.7233008 
H     4.0343682   -2.9591167   -2.4672832 
N     3.2852609   -1.6981870    0.2600188 
H     1.2127438   -2.1637605    0.0234087 
H     3.0238302   -1.0963893    1.0765817 
H     3.5490156   -2.6229528    0.6804839 
