24
Energy =
C     1.9265732    2.6398633   -0.1405672 
C     0.8839446    2.8907337    0.6844153 
C    -0.0272657    1.9233179    0.9376575 
C     2.0569161    1.4205311   -0.7233518 
C     1.1373548    0.4450331   -0.4818533 
C     0.0963306    0.7017752    0.3583395 
O     0.7557054    4.1399946    1.2823056 
H     0.2262522    4.7689468    0.6885176 
H    -0.6404680   -0.0689067    0.5730265 
H     2.9045507    1.2243919   -1.3758943 
H     2.6572100    3.4210405   -0.3213505 
H    -0.8516315    2.1335122    1.6112841 
C     1.2883482   -0.9224245   -1.1107220 
C     1.9610020   -1.9281256   -0.1538860 
H     1.8777140   -0.8557019   -2.0530973 
H     0.2802989   -1.2962305   -1.4048715 
C     1.8313258   -3.3461443   -0.7037983 
O     0.8693418   -4.1921730   -0.1675474 
O     2.6192623   -3.8032638   -1.7591738 
H     3.2783523   -3.0967286   -2.0534786 
N     3.3704812   -1.5410732    0.0536600 
H     1.4166794   -1.9336318    0.8213078 
H     3.4039031   -0.6935552    0.6685144 
H     3.8611636   -2.2934126    0.5966727 
