24
Energy =
C     1.4699507    2.7792776    0.1276047 
C     0.3918434    3.0762561   -0.6461878 
C    -0.2374058    2.0889540   -1.3230790 
C     1.9099798    1.4987216    0.2216220 
C     1.2704861    0.5022672   -0.4515047 
C     0.1978020    0.8068587   -1.2316151 
O    -0.0874273    4.3847007   -0.7651429 
H     0.4382006    5.0682356   -0.2310974 
H    -0.3109936    0.0272011   -1.7922586 
H     2.7777273    1.2768280    0.8377787 
H     1.9841453    3.5651715    0.6701593 
H    -1.0913401    2.3400141   -1.9426503 
C     1.7736779   -0.9224286   -0.3671707 
C     2.8032135   -1.2200704   -1.4786685 
H     0.9162920   -1.6279855   -0.4339798 
H     2.2338500   -1.0933396    0.6335631 
C     3.6037122   -2.4907219   -1.1977303 
O     4.9880818   -2.4118863   -1.1285577 
O     2.9925377   -3.7318673   -1.0198749 
H     1.9879087   -3.6712745   -1.0723855 
N     2.1200534   -1.2581403   -2.7856419 
H     3.5580054   -0.3967038   -1.4872425 
H     2.8342441   -1.3594564   -3.5472251 
H     1.4971049   -2.0978245   -2.8459623 
