24
Energy =
C     0.8106831    2.1302597    0.5775970 
C    -0.0321611    2.7589018   -0.2735901 
C    -0.2479754    2.2533297   -1.5090114 
C     1.4378683    0.9881012    0.1972888 
C     1.2266882    0.4710487   -1.0461042 
C     0.3761574    1.1116959   -1.8963973 
O    -0.6739584    3.9289085    0.1185197 
H    -1.5657847    3.7167900    0.5526144 
H     0.1843470    0.7043359   -2.8850904 
H     2.1012409    0.4877456    0.8991108 
H     0.9759216    2.5474317    1.5651418 
H    -0.9254094    2.7687370   -2.1815163 
C     1.9126686   -0.8144176   -1.4703441 
C     0.9793888   -2.0408514   -1.3903275 
H     2.8089980   -0.9978877   -0.8354549 
H     2.2909672   -0.7064172   -2.5096863 
C     0.4458625   -2.2593472    0.0257509 
O     1.2940936   -2.1123626    1.1189522 
O    -0.8501779   -2.7156087    0.2407428 
H    -0.9975000   -2.8225088    1.2361519 
N    -0.0836639   -1.8983963   -2.4059504 
H     1.5817091   -2.9519380   -1.6113657 
H     0.2944920   -2.1936339   -3.3358521 
H    -0.8664174   -2.5650963   -2.1894270 
