24
Energy =
C     0.9646132    2.3308284    0.3180282 
C     0.3056642    2.9463802   -0.6997778 
C     0.1682769    2.3130315   -1.8866524 
C     1.4842462    1.0895521    0.1420013 
C     1.3550308    0.4549860   -1.0552246 
C     0.6852067    1.0709748   -2.0679771 
O    -0.2413062    4.2252630   -0.5533023 
H    -0.1013595    4.6300986    0.3660829 
H     0.5572971    0.5744927   -3.0265714 
H     1.9956328    0.6021036    0.9685753 
H     1.0732133    2.8269549    1.2762993 
H    -0.3645769    2.8140793   -2.6875485 
C     1.9138722   -0.9377219   -1.2457192 
C     0.8882824   -2.0162502   -0.8455110 
H     2.8427814   -1.0657902   -0.6451238 
H     2.2184506   -1.0756735   -2.3081262 
C     1.3181280   -3.3835838   -1.3467303 
O     2.4072523   -4.0373891   -0.7822469 
O     0.6496582   -3.9687328   -2.4123952 
H     1.0756164   -4.8657479   -2.6102952 
N     0.6966605   -1.9868883    0.6175821 
H    -0.0823951   -1.8053567   -1.3550796 
H    -0.0609095   -2.6628211    0.8784180 
H     1.5674132   -2.3330899    1.0899930 
