24
Energy =
C     1.6535956    2.8635251    0.2254678 
C     0.7639370    3.2707393   -0.7180289 
C     0.1501728    2.3527371   -1.4983492 
C     1.9243132    1.5438212    0.3826106 
C     1.3085534    0.6158157   -0.4034512 
C     0.4161383    1.0308989   -1.3450111 
O     0.4618045    4.6231845   -0.9054392 
H     0.9640324    5.2503006   -0.2864089 
H    -0.0935845    0.3117355   -1.9809005 
H     2.6407557    1.2363465    1.1397783 
H     2.1513258    3.5916623    0.8563361 
H    -0.5574198    2.6904166   -2.2482529 
C     1.6193496   -0.8597974   -0.2335862 
C     2.7318709   -1.3777296   -1.1841128 
H     0.6893835   -1.4534167   -0.3898972 
H     1.9205596   -1.0614503    0.8181481 
C     2.3098677   -1.3708284   -2.6603863 
O     1.0150327   -1.7491428   -2.9962518 
O     3.2032992   -1.0980869   -3.6951385 
H     4.1350409   -0.9486671   -3.3390895 
N     4.0033960   -0.6681208   -0.9317755 
H     2.8870377   -2.4575147   -0.9572869 
H     3.9029462    0.3529547   -1.1482958 
H     4.2627915   -0.7485213    0.0807693 
