24
Energy =
C     1.8188180    2.6310995    0.0245842 
C     0.5230932    2.9317278    0.2713296 
C    -0.4359439    1.9957009    0.0864667 
C     2.1611276    1.3896198   -0.4050418 
C     1.2008487    0.4429713   -0.5975507 
C    -0.1013383    0.7515439   -0.3412691 
O     0.1762327    4.2052565    0.7114388 
H     0.2088980    4.2540534    1.7237592 
H    -0.8825968    0.0075033   -0.4767775 
H     3.2073704    1.1546488   -0.5838518 
H     2.5762037    3.3925090    0.1756220 
H    -1.4717485    2.2509169    0.2838381 
C     1.5797168   -0.9487076   -1.0551112 
C     1.9637186   -1.8500920    0.1328397 
H     2.4280002   -0.9030863   -1.7743414 
H     0.7300030   -1.4021781   -1.6139286 
C     2.0477139   -3.3050399   -0.3005346 
O     1.2405945   -4.2630193    0.2998870 
O     2.9246044   -3.6866139   -1.3091810 
H     2.8400048   -4.6853844   -1.4524525 
N     3.2303599   -1.3710929    0.7172242 
H     1.1559236   -1.7967935    0.9005987 
H     3.3933340   -1.8756036    1.6211140 
H     4.0267875   -1.6381005    0.0876971 
