24
Energy =
C     0.9770692    2.3513553    0.4143896 
C    -0.2327931    2.3568045   -0.1907694 
C    -0.6089953    1.3101276   -0.9605650 
C     1.8101421    1.2898983    0.2635329 
C     1.4331518    0.2244081   -0.4968752 
C     0.2189761    0.2457236   -1.1162216 
O    -1.0863397    3.4435082   -0.0288623 
H    -1.6761376    3.3179596    0.7859662 
H    -0.0915324   -0.5821227   -1.7497376 
H     2.7879735    1.3023964    0.7374954 
H     1.2744921    3.2082078    1.0091801 
H    -1.5730353    1.3353604   -1.4575589 
C     2.3663599   -0.9584804   -0.6759925 
C     3.4818736   -0.6843130   -1.7062419 
H     1.7899086   -1.8554873   -0.9972202 
H     2.8236404   -1.2213323    0.3022573 
C     2.9073636   -0.3268497   -3.0762253 
O     3.4478970    0.7012414   -3.8428067 
O     1.8870680   -1.1021335   -3.6180556 
H     1.6568406   -0.7389561   -4.5345279 
N     4.3967830    0.3391191   -1.1601750 
H     4.0424526   -1.6323002   -1.8753195 
H     5.0043304   -0.1014113   -0.4303387 
H     5.0477259    0.6696882   -1.9145443 
