24
Energy =
C     2.0858279    2.6193699   -0.0336843 
C     1.0170556    2.9203533    0.7513388 
C     0.0388690    2.0034407    0.9295324 
C     2.1690320    1.4056386   -0.6359815 
C     1.1819098    0.4841853   -0.4617375 
C     0.1173818    0.7881615    0.3301339 
O     0.9009155    4.1600398    1.3873270 
H     1.6697493    4.7948127    1.2010475 
H    -0.6767222    0.0620573    0.4876006 
H     3.0327423    1.1709214   -1.2540905 
H     2.8768434    3.3473696   -0.1789748 
H    -0.8070455    2.2560753    1.5599109 
C     1.2799911   -0.8768292   -1.1149469 
C     1.8471917   -1.9407344   -0.1527862 
H     1.9147562   -0.8263081   -2.0284359 
H     0.2662054   -1.1829790   -1.4629108 
C     1.6566021   -3.3371721   -0.7391610 
O     0.6245285   -4.1342125   -0.2613770 
O     2.4601772   -3.8201566   -1.7709065 
H     3.1716230   -3.1487355   -2.0223894 
N     3.2668594   -1.6450476    0.1239711 
H     1.2606769   -1.9319943    0.7975642 
H     3.3242659   -0.8148194    0.7601113 
H     3.6875448   -2.4378276    0.6682414 
