24
Energy =
C     1.3976063    2.4158878    0.7699007 
C     0.1188200    2.6072971    0.3724836 
C    -0.5239722    1.6446804   -0.3276908 
C     2.0412196    1.2601086    0.4644032 
C     1.3994523    0.2852546   -0.2394162 
C     0.1135141    0.4877210   -0.6399700 
O    -0.5373234    3.7926405    0.6887334 
H    -0.3794842    4.4919586   -0.0289869 
H    -0.4123717   -0.2728785   -1.2123368 
H     3.0763286    1.1250250    0.7757106 
H     1.8975435    3.1979071    1.3313398 
H    -1.5511058    1.8087740   -0.6364543 
C     2.1213788   -0.9921244   -0.6123757 
C     2.8533706   -0.8625197   -1.9608169 
H     1.3938854   -1.8322749   -0.6769141 
H     2.8447510   -1.2800248    0.1838710 
C     3.9776677    0.1752533   -1.9024549 
O     4.8738054    0.1524562   -0.8392530 
O     4.1422552    1.1412016   -2.8940854 
H     3.4718251    1.0429784   -3.6417566 
N     3.3533904   -2.1916125   -2.3446251 
H     2.1106526   -0.5310151   -2.7217131 
H     3.7436134   -2.1396219   -3.3158627 
H     4.1563312   -2.4569355   -1.7225851 
