24
Energy =
C     0.8043494    2.5288291   -0.0932181 
C    -0.3274794    2.3380896    0.6359001 
C    -0.7536583    1.0804782    0.8912694 
C     1.5036923    1.4629821   -0.5586732 
C     1.0792553    0.1960201   -0.2959822 
C    -0.0589694    0.0106340    0.4272171 
O    -1.0705462    3.4135289    1.1332118 
H    -0.6939136    4.3226436    0.8874378 
H    -0.4209528   -0.9923567    0.6374912 
H     2.4020783    1.6324037   -1.1481781 
H     1.1513622    3.5335787   -0.3087650 
H    -1.6607012    0.9436070    1.4698106 
C     1.8426238   -0.9959862   -0.8319512 
C     1.2495127   -1.5080454   -2.1673953 
H     1.8202885   -1.8108199   -0.0752574 
H     2.9160174   -0.7349420   -0.9837383 
C     1.3617993   -0.4708007   -3.2746842 
O     0.2710675   -0.2122929   -4.0987658 
O     2.5479910    0.2285447   -3.4808594 
H     2.4320980    0.8288444   -4.2863223 
N     1.9014837   -2.7705413   -2.5771830 
H     0.1559813   -1.6795563   -2.0255270 
H     2.6140376   -3.1075863   -1.8879175 
H     1.1834176   -3.5266374   -2.6752483 
