24
Energy =
C     1.4084564    1.9415504    1.2092375 
C     0.0926327    2.0742036    0.9240678 
C    -0.4996981    1.2269278    0.0511046 
C     2.1392645    0.9628316    0.6175332 
C     1.5488235    0.1039853   -0.2604109 
C     0.2245568    0.2458524   -0.5454384 
O    -0.6531827    3.0783636    1.5328561 
H    -0.6252620    3.9301013    0.9830470 
H    -0.2633348   -0.4247763   -1.2488737 
H     3.1993920    0.8753917    0.8484973 
H     1.8690005    2.6245016    1.9151028 
H    -1.5573256    1.3398723   -0.1636196 
C     2.3647708   -0.9709447   -0.9443758 
C     2.8908619   -0.5076881   -2.3149511 
H     1.7429127   -1.8835876   -1.0831058 
H     3.2205805   -1.2799699   -0.3012540 
C     3.8286338    0.6842736   -2.1873957 
O     5.0047614    0.5761481   -1.4565890 
O     3.4910117    1.9050677   -2.7542421 
H     2.8340421    2.3783474   -2.1512074 
N     3.5350581   -1.6555773   -2.9762931 
H     2.0312046   -0.1664474   -2.9385427 
H     3.7915512   -1.3821256   -3.9554496 
H     4.4415421   -1.8751587   -2.4934125 
