24
Energy =
C     0.6217932    2.3139471    0.2721874 
C    -0.0766189    2.8396785   -0.7605706 
C    -0.1416146    2.1792427   -1.9394500 
C     1.2696565    1.1302521    0.1250945 
C     1.2210653    0.4664975   -1.0629269 
C     0.5017980    0.9935283   -2.0932763 
O    -0.7378816    4.0544326   -0.6079723 
H    -0.1287211    4.8265808   -0.8543000 
H     0.4330201    0.4682722   -3.0427458 
H     1.8148503    0.7105309    0.9669100 
H     0.6487903    2.8440582    1.2177776 
H    -0.7189608    2.6041283   -2.7539246 
C     1.9204709   -0.8651604   -1.2223413 
C     1.0067253   -2.0349541   -0.8078749 
H     2.8520877   -0.8865174   -0.6128667 
H     2.2463948   -0.9913296   -2.2798032 
C     1.5745032   -3.3599046   -1.2853477 
O     2.7259040   -3.8873503   -0.7121707 
O     0.9692392   -4.0302814   -2.3385125 
H     1.4844154   -4.8827312   -2.5203728 
N     0.8068049   -2.0016557    0.6539910 
H     0.0218837   -1.9307258   -1.3234578 
H     0.1137927   -2.7408346    0.9226623 
H     1.7037149   -2.2578439    1.1347019 
