24
Energy =
C     1.6620653    2.6855530   -0.3137176 
C     0.3226360    2.8399174   -0.1370833 
C    -0.4873428    1.7581963   -0.1887805 
C     2.1826365    1.4532063   -0.5416291 
C     1.3671644    0.3639759   -0.5977085 
C     0.0275357    0.5232228   -0.4161583 
O    -0.2462039    4.0953882    0.0999101 
H     0.4251038    4.8553452    0.1239504 
H    -0.6397518   -0.3346161   -0.4513260 
H     3.2562367    1.3462078   -0.6753592 
H     2.3199260    3.5469039   -0.2716354 
H    -1.5535414    1.8952975   -0.0442522 
C     1.9422709   -1.0146205   -0.8353852 
C     2.0527677   -1.8355338    0.4723785 
H     2.9422623   -0.9493144   -1.3217515 
H     1.2894596   -1.5519156   -1.5612233 
C     2.3752842   -3.2865672    0.1692026 
O     3.6149073   -3.6430911   -0.3532760 
O     1.3982892   -4.2612331    0.3311051 
H     1.7908319   -5.1609987    0.0849330 
N     3.0539918   -1.2446610    1.3791664 
H     1.0639728   -1.8616980    0.9869397 
H     3.9784347   -1.1611834    0.8917739 
H     2.7538742   -0.2853037    1.6711896 
