24
Energy =
C     2.4631948    2.8116207   -0.6217661 
C     1.2022291    3.2870718   -0.7431352 
C     0.1537454    2.4322227   -0.7438104 
C     2.6797565    1.4781307   -0.4893768 
C     1.6276151    0.6125999   -0.4733966 
C     0.3623639    1.0975981   -0.6107677 
O     0.9844099    4.6547406   -0.8785367 
H     0.8882112    5.0936326    0.0304512 
H    -0.4871508    0.4194542   -0.6262494 
H     3.6985565    1.1092133   -0.4012272 
H     3.2949050    3.5072730   -0.6398423 
H    -0.8512400    2.8237516   -0.8599604 
C     1.8665456   -0.8757467   -0.3494166 
C     2.0714172   -1.5308969   -1.7294539 
H     1.0132112   -1.3626979    0.1743148 
H     2.7604017   -1.0553743    0.2909830 
C     2.6041210   -2.9455510   -1.5823783 
O     1.7532717   -3.9977861   -1.2644452 
O     3.9638585   -3.1862203   -1.7167833 
H     4.1364712   -4.1735335   -1.5723102 
N     0.8074577   -1.4802479   -2.4890724 
H     2.8621181   -0.9712115   -2.2833728 
H     0.9610901   -1.8922836   -3.4405326 
H     0.0981343   -2.0952827   -2.0215569 
