24
Energy =
C     1.5981801    2.7271748    0.3725476 
C     0.5608115    3.1079499   -0.4074904 
C    -0.0978497    2.1913587   -1.1529533 
C     1.9751283    1.4249566    0.4177889 
C     1.3122578    0.4923140   -0.3238693 
C     0.2721957    0.8860834   -1.1119861 
O     0.1758732    4.4441007   -0.4491638 
H    -0.5026669    4.6462304    0.2767221 
H    -0.2622746    0.1618109   -1.7218678 
H     2.8121469    1.1366531    1.0477317 
H     2.1266771    3.4739886    0.9543434 
H    -0.9178715    2.5116650   -1.7873110 
C     1.7352206   -0.9633202   -0.2832424 
C     2.7400297   -1.3454375   -1.3988774 
H     0.8351303   -1.6140816   -0.3645528 
H     2.1832552   -1.1997370    0.7071232 
C     2.1319538   -1.2292715   -2.7908873 
O     1.4418702   -2.3082929   -3.3339615 
O     2.1750955   -0.0309492   -3.4971516 
H     1.7249761   -0.1600948   -4.3931920 
N     3.9995361   -0.5895811   -1.2696101 
H     2.9792157   -2.4259728   -1.2783822 
H     3.8397254    0.4166468   -1.5180291 
H     4.3459565   -0.6275222   -0.2830191 
