24
Energy =
C     1.6783423    2.8400882    0.3330714 
C     0.6936892    3.2526157   -0.5085028 
C     0.0271280    2.3428590   -1.2544200 
C     1.9897211    1.5229930    0.4246334 
C     1.3168680    0.6033861   -0.3230569 
C     0.3315830    1.0236409   -1.1644857 
O     0.3473819    4.6022770   -0.6250655 
H     0.8977046    5.2229882   -0.0417043 
H    -0.2110878    0.3102283   -1.7804246 
H     2.7833678    1.2118773    1.0986330 
H     2.2204583    3.5622148    0.9336490 
H    -0.7507028    2.6850945   -1.9286673 
C     1.6718635   -0.8683179   -0.2302262 
C     2.6368076   -1.3432959   -1.3456708 
H     0.7381161   -1.4746667   -0.2690749 
H     2.1275154   -1.0879680    0.7604963 
C     1.9919530   -1.2931697   -2.7237284 
O     1.2049580   -2.3531025   -3.1526628 
O     2.0982976   -0.1674304   -3.5299658 
H     2.9453312   -0.2505602   -4.0727013 
N     3.9186877   -0.6147400   -1.2950083 
H     2.8480709   -2.4228269   -1.1707359 
H     3.7649536    0.3979105   -1.5192090 
H     4.3179917   -0.6641102   -0.3282648 
