24
Energy =
C     1.8810020    2.6554823   -0.0721235 
C     0.8103918    2.9068741    0.7147685 
C    -0.1099456    1.9292699    0.9297926 
C     2.0389127    1.4377121   -0.6492034 
C     1.1161112    0.4583198   -0.4454825 
C     0.0437695    0.7086318    0.3556053 
O     0.6819962    4.1747051    1.2908987 
H    -0.1428781    4.2880914    1.8696765 
H    -0.6958965   -0.0662354    0.5419412 
H     2.9117294    1.2472132   -1.2680545 
H     2.6128356    3.4401624   -0.2305299 
H    -0.9682446    2.1221201    1.5636535 
C     1.3025220   -0.9083804   -1.0676342 
C     2.1652002   -1.8201854   -0.1684835 
H     1.7686560   -0.8023822   -2.0721401 
H     0.3059128   -1.3765898   -1.2405509 
C     2.0406654   -3.2929488   -0.5538704 
O     1.6057631   -4.2026629    0.4005589 
O     2.3556870   -3.7582681   -1.8304102 
H     2.6477188   -3.0133475   -2.4433733 
N     3.5624241   -1.3457056   -0.1827664 
H     1.7699578   -1.7609659    0.8748292 
H     4.1267963   -1.9056152    0.5019009 
H     3.9911091   -1.5064970   -1.1246556 
