24
Energy =
C     1.4469096    2.4090253   -0.7869961 
C     0.1014244    2.5369795   -0.8303120 
C    -0.6859640    1.4434561   -0.7173965 
C     2.0114707    1.1831512   -0.6421148 
C     1.2262781    0.0745342   -0.5232585 
C    -0.1295393    0.2145255   -0.5665740 
O    -0.4740632    3.7941258   -0.9859852 
H    -0.5908980    4.0166793   -1.9682064 
H    -0.7789082   -0.6526502   -0.4789304 
H     3.0954471    1.1000732   -0.6093641 
H     2.0652575    3.2969714   -0.8621128 
H    -1.7642413    1.5616385   -0.7444433 
C     1.8506860   -1.3002398   -0.3566945 
C     2.4011763   -1.5752983    1.0686858 
H     2.6716409   -1.4140977   -1.0998407 
H     1.1115997   -2.0934763   -0.6086469 
C     3.5959129   -0.6744689    1.4059037 
O     3.4040550    0.5186842    2.0927435 
O     4.8764242   -0.9681404    0.9365182 
H     4.9148946   -1.8490736    0.4462182 
N     1.3249750   -1.5597412    2.0891953 
H     2.8120018   -2.6092782    1.0632042 
H     1.5188723   -0.8533348    2.8406041 
H     0.3971981   -1.2918019    1.6905273 
