24
Energy =
C     2.2907422    2.4808993    0.2229684 
C     1.0513192    3.0054992    0.3625024 
C    -0.0369067    2.2567805    0.0710221 
C     2.4469574    1.2073497   -0.2205241 
C     1.3562561    0.4523269   -0.5300063 
C     0.1110239    0.9826692   -0.3739557 
O     0.8951636    4.3123870    0.8140549 
H     0.9083870    4.9630083    0.0367656 
H    -0.7737265    0.3886817   -0.5943948 
H     3.4484808    0.7969520   -0.3218040 
H     3.1531433    3.0875607    0.4763295 
H    -1.0257154    2.6831031    0.2040918 
C     1.5286376   -0.9738507   -1.0058087 
C     1.6715437   -1.9627437    0.1630971 
H     2.4296407   -1.0422212   -1.6544086 
H     0.6706203   -1.2869466   -1.6437043 
C     0.3994763   -2.0360003    1.0041323 
O     0.4857721   -2.0929270    2.3898008 
O    -0.8523319   -2.1014601    0.4008000 
H    -1.5551385   -2.1834662    1.1245397 
N     2.0595685   -3.2709369   -0.4056824 
H     2.4712801   -1.5943368    0.8493064 
H     3.0334711   -3.5081593   -0.1024090 
H     1.4446322   -4.0423897   -0.0479051 
