24
Energy =
C     2.0382510    1.9113281    1.1146489 
C     0.9037189    2.5688932    0.7562023 
C     0.1004061    2.0451726   -0.1973161 
C     2.3615517    0.7358482    0.5203309 
C     1.5519977    0.2042261   -0.4383508 
C     0.4174576    0.8682509   -0.7938538 
O     0.5396445    3.7809223    1.3515427 
H     1.1986725    4.1163733    2.0456675 
H    -0.2388033    0.4679732   -1.5629133 
H     3.2742973    0.2256745    0.8161189 
H     2.6904714    2.3239199    1.8763146 
H    -0.7982744    2.5831849   -0.4793573 
C     1.9168484   -1.1034863   -1.1129952 
C     2.6955082   -0.9156096   -2.4393318 
H     0.9900578   -1.6884165   -1.3137019 
H     2.5202716   -1.7321895   -0.4215473 
C     1.8581545   -0.2309875   -3.5097044 
O     1.8747524    1.1522503   -3.6663838 
O     0.9898194   -0.9886899   -4.2870902 
H     0.5203265   -0.3774715   -4.9429788 
N     3.9872147   -0.2407120   -2.2115037 
H     2.9044289   -1.9267613   -2.8567841 
H     3.8282549    0.7587840   -1.9371315 
H     4.5065916   -0.7074722   -1.4319142 
