24
Energy =
C     1.3465298    2.0671048    0.6919393 
C     0.9179910    2.9165023   -0.2701340 
C     0.7789523    2.4821634   -1.5437399 
C     1.6326316    0.7764184    0.3840871 
C     1.4987703    0.3323046   -0.8966564 
C     1.0631344    1.1928047   -1.8593541 
O     0.6252635    4.2387580    0.0482923 
H    -0.3470555    4.3354493    0.3194400 
H     0.9425201    0.8564709   -2.8858574 
H     1.9637915    0.1000685    1.1689457 
H     1.4581717    2.4300949    1.7079138 
H     0.4411291    3.1756252   -2.3067108 
C     1.7966210   -1.1110976   -1.2394488 
C     0.5451300   -1.9945743   -1.0970527 
H     2.5957632   -1.5075102   -0.5706285 
H     2.1998108   -1.1715720   -2.2750580 
C     0.7855647   -3.3617218   -1.7233041 
O     1.6264883   -4.2811602   -1.1119902 
O     0.2130648   -3.6793732   -2.9474127 
H     0.7229228   -3.2161599   -3.6847428 
N     0.1888161   -2.0713945    0.3369568 
H    -0.2931707   -1.5449462   -1.6814338 
H    -0.7280615   -1.5921600    0.4971010 
H     0.0683006   -3.0654651    0.6540649 
