24
Energy =
C     0.7524741    2.0639223    0.9791708 
C    -0.2586730    2.6380455    0.2870753 
C    -0.5603067    2.2019418   -0.9575350 
C     1.4617232    1.0444789    0.4308457 
C     1.1631904    0.5994266   -0.8213750 
C     0.1445395    1.1831108   -1.5122988 
O    -0.9841844    3.6819686    0.8523973 
H    -1.7715186    3.3263364    1.3832430 
H    -0.1077416    0.8413593   -2.5131627 
H     2.2690517    0.5876419    0.9980789 
H     0.9897565    2.4311181    1.9717560 
H    -1.3664729    2.6775464   -1.5061606 
C     1.9404495   -0.5447359   -1.4339923 
C     1.1875479   -1.8886123   -1.3165880 
H     2.9422664   -0.6365374   -0.9559348 
H     2.1349024   -0.3079999   -2.5060021 
C     1.8283135   -2.9436434   -2.2170779 
O     1.2072883   -3.2771617   -3.4145041 
O     3.0391276   -3.5539306   -1.8920991 
H     3.3781657   -3.2286740   -0.9976275 
N     1.1631186   -2.3148232    0.0956013 
H     0.1449439   -1.7649676   -1.6958541 
H     0.5546356   -1.6607222    0.6425223 
H     0.6999815   -3.2530084    0.1666620 
