24
Energy =
C     0.6790198    2.6939482   -0.6774209 
C    -0.5587823    2.6844944   -0.1316363 
C    -1.0441630    1.5517938    0.4252196 
C     1.4427645    1.5718089   -0.6556733 
C     0.9666584    0.4290081   -0.0869163 
C    -0.2865145    0.4251403    0.4487441 
O    -1.3370160    3.8373694   -0.1494682 
H    -1.1719917    4.3940416    0.6815137 
H    -0.6895989   -0.4831358    0.8899823 
H     2.4310237    1.5901821   -1.1071097 
H     1.0479807    3.6038532   -1.1380614 
H    -2.0457166    1.5538025    0.8424468 
C     1.8147656   -0.8285588   -0.0711921 
C     1.6449761   -1.6816630   -1.3495130 
H     1.5661859   -1.4464960    0.8210180 
H     2.8859622   -0.5528103    0.0426281 
C     0.2307291   -2.2429473   -1.4956750 
O    -0.3045626   -2.5098449   -2.7518944 
O    -0.4934480   -2.6245734   -0.3686242 
H    -1.3635407   -3.0443218   -0.6730985 
N     2.0721452   -0.8891569   -2.5180907 
H     2.2964772   -2.5798668   -1.2550738 
H     3.1058963   -0.7342338   -2.4687947 
H     1.9027287   -1.4382115   -3.3953205 
