24
Energy =
C     2.6689257    2.2181839   -0.5264463 
C     1.4936303    2.8719569   -0.6707446 
C     0.3421768    2.1743086   -0.7998068 
C     2.6962684    0.8611995   -0.5055606 
C     1.5407120    0.1498695   -0.6337452 
C     0.3614472    0.8173447   -0.7781295 
O     1.4699023    4.2625521   -0.6925113 
H     1.3794145    4.6318761    0.2479212 
H    -0.5726414    0.2690084   -0.8670960 
H     3.6461370    0.3472104   -0.3779911 
H     3.5840169    2.7917901   -0.4272639 
H    -0.5938639    2.7102029   -0.9164933 
C     1.5624219   -1.3662530   -0.5890795 
C     1.3233325   -1.9208656    0.8322932 
H     2.5355984   -1.7460801   -0.9742007 
H     0.7855714   -1.7703527   -1.2739562 
C     2.4289751   -1.5083739    1.8001184 
O     2.1512312   -1.2390114    3.1360893 
O     3.7563341   -1.5109450    1.3837841 
H     4.3422573   -1.2865015    2.1789426 
N    -0.0224740   -1.5203171    1.2860838 
H     1.3857659   -3.0320486    0.7888190 
H    -0.7389569   -2.0738598    0.7617135 
H    -0.1424129   -1.7721213    2.2976641 
