24
Energy =
C     1.3620797    2.8070487    0.1558497 
C     0.4937988    3.1260387   -0.8409366 
C     0.0184810    2.1525341   -1.6505065 
C     1.7464400    1.5178280    0.3385727 
C     1.2624796    0.5358140   -0.4708810 
C     0.3986597    0.8620974   -1.4715340 
O     0.0760658    4.4431866   -1.0546661 
H     0.4843800    5.1153753   -0.4145625 
H     0.0127650    0.0949950   -2.1395118 
H     2.4522592    1.2733139    1.1294857 
H     1.7532741    3.5827054    0.8056193 
H    -0.6674237    2.4211000   -2.4466519 
C     1.7038561   -0.9006162   -0.2775670 
C     2.9659115   -1.2552764   -1.0876401 
H     0.8772175   -1.5907258   -0.5619080 
H     1.9056279   -1.0941413    0.7990698 
C     2.7378006   -1.1264563   -2.5923636 
O     1.8278083   -1.9657803   -3.2248262 
O     3.4011584   -0.1617334   -3.3424225 
H     3.1084425   -0.2415249   -4.3076123 
N     4.1086063   -0.4664759   -0.5851501 
H     3.1756962   -2.3362450   -0.9163217 
H     4.9900734   -0.8863449   -0.9652064 
H     4.0708919    0.4948298   -1.0067371 
