24
Energy =
C     1.5913745    2.6704541   -0.1858703 
C     0.3175416    2.8378475    0.2371206 
C    -0.5282250    1.7830712    0.2716080 
C     2.0266316    1.4435137   -0.5715623 
C     1.1816156    0.3745212   -0.5384888 
C    -0.1000869    0.5533723   -0.1114063 
O    -0.1243445    4.0965092    0.6317152 
H     0.0453447    4.2381643    1.6214801 
H    -0.7860467   -0.2881324   -0.0662792 
H     3.0567019    1.3219167   -0.8994335 
H     2.2568638    3.5266895   -0.2110854 
H    -1.5481140    1.9306585    0.6101539 
C     1.6656454   -1.0027297   -0.9515671 
C     2.1562370   -1.8460891    0.2460651 
H     2.4841158   -0.9111677   -1.7008104 
H     0.8429860   -1.5453437   -1.4659644 
C     3.3794093   -1.2308060    0.9243650 
O     4.3575522   -0.5963975    0.1643225 
O     3.6042161   -1.4080684    2.2844538 
H     4.4774101   -0.9598300    2.5304056 
N     1.0270958   -2.0651661    1.1718075 
H     2.5142130   -2.8271438   -0.1417381 
H     0.3946709   -2.7966704    0.7728407 
H     1.3858618   -2.4497644    2.0807378 
