24
Energy =
C     0.9299247    2.2554737    0.6440315 
C     0.0151764    2.7521772   -0.2305419 
C    -0.3561612    2.0135474   -1.3006137 
C     1.4675815    1.0258156    0.4432423 
C     1.0966834    0.2812193   -0.6353596 
C     0.1782303    0.7830396   -1.5067995 
O    -0.5587035    4.0151288   -0.0535649 
H    -0.2289203    4.5079663    0.7694057 
H    -0.1363778    0.2062836   -2.3724337 
H     2.1966551    0.6410132    1.1519354 
H     1.2332961    2.8400512    1.5058182 
H    -1.0879163    2.4218564   -1.9893578 
C     1.7030255   -1.0888996   -0.8583749 
C     3.1761340   -1.0142042   -1.3408827 
H     1.1038300   -1.6822424   -1.5860097 
H     1.6509654   -1.6555286    0.0997088 
C     3.8608188   -2.3832891   -1.2722244 
O     3.0997020   -3.5464576   -1.2572897 
O     5.2503598   -2.4922495   -1.2731698 
H     5.6972605   -1.5901484   -1.3566853 
N     3.2763726   -0.3983045   -2.6866253 
H     3.7398513   -0.3733045   -0.6267153 
H     3.7273810   -1.0486926   -3.3758817 
H     2.3398608   -0.1671946   -3.0912511 
