24
Energy =
C     1.5400945    2.6702424   -0.0023547 
C     0.3224997    2.7061495    0.6020595 
C    -0.4325447    1.5851101    0.6517649 
C     1.9937085    1.5160050   -0.5540140 
C     1.2312585    0.3887897   -0.5099910 
C     0.0163276    0.4279372    0.1023492 
O    -0.1741600    3.8779990    1.1812844 
H     0.4475652    4.6751385    1.0990827 
H    -0.6035262   -0.4637392    0.1562291 
H     2.9743020    1.4961426   -1.0251207 
H     2.1545981    3.5632608   -0.0429558 
H    -1.4006266    1.6273898    1.1391613 
C     1.7420980   -0.9042711   -1.1055300 
C     2.4186133   -1.8016980   -0.0489501 
H     2.4702162   -0.7006368   -1.9237639 
H     0.8960692   -1.4487806   -1.5831372 
C     2.6703339   -3.2020440   -0.5912679 
O     2.7248068   -3.4507325   -1.9593028 
O     2.8630765   -4.2526565    0.2953900 
H     3.0329879   -5.0977418   -0.2356206 
N     3.6699573   -1.1601488    0.3991073 
H     1.7279657   -1.9469825    0.8154096 
H     3.4345738   -0.3861029    1.0633121 
H     4.2268559   -1.8498908    0.9625907 
