24
Energy =
C     0.4278499    2.3326865    0.4581777 
C    -0.5903798    2.3533054   -0.4309134 
C    -0.7223337    1.3378634   -1.3251010 
C     1.3147719    1.3071189    0.4635639 
C     1.1884200    0.2847872   -0.4283943 
C     0.1621727    0.3084851   -1.3243200 
O    -1.4864178    3.4266202   -0.4031203 
H    -2.2129599    3.3798412   -1.1091389 
H     0.0431973   -0.4945231   -2.0474468 
H     2.1275604    1.3131297    1.1845203 
H     0.5275515    3.1488944    1.1648117 
H    -1.5343439    1.3478133   -2.0437628 
C     2.1894464   -0.8555836   -0.4350380 
C     3.4409594   -0.5459462   -1.2894546 
H     1.7048350   -1.7870486   -0.8055540 
H     2.5054911   -1.0754306    0.6083191 
C     3.1078869   -0.3820357   -2.7731088 
O     2.1726768   -1.2198760   -3.3757869 
O     3.8152469    0.5113486   -3.5715611 
H     3.4668507    0.4560020   -4.5191611 
N     4.1325885    0.6272841   -0.7234852 
H     4.1185751   -1.4282382   -1.2432842 
H     4.5384280    0.3717459    0.2067075 
H     4.9444485    0.8827782   -1.3360089 
