24
Energy =
C     1.9758209    2.5351903   -0.6551766 
C     0.8007011    2.9839415   -0.1566217 
C    -0.1913745    2.1097551    0.1286390 
C     2.1589575    1.2095018   -0.8831890 
C     1.1582085    0.3246103   -0.6155850 
C    -0.0170142    0.7829551   -0.0981064 
O     0.6161526    4.3437933    0.0720508 
H     0.2508598    4.8011305   -0.7557301 
H    -0.8193713    0.0904514    0.1500001 
H     3.1119333    0.8631328   -1.2756963 
H     2.7688086    3.2461028   -0.8610974 
H    -1.1213242    2.4790915    0.5484358 
C     1.3684487   -1.1565209   -0.8503825 
C     1.9351136   -1.8617878    0.3960479 
H     2.0713650   -1.3058814   -1.7002683 
H     0.4125425   -1.6387943   -1.1544322 
C     0.9407768   -1.8557582    1.5527137 
O     1.3298406   -1.3973374    2.8020142 
O    -0.3651782   -2.2982089    1.3728218 
H    -0.3659756   -3.3062241    1.3339861 
N     2.3551101   -3.2222281    0.0149090 
H     2.8314442   -1.2975564    0.7468796 
H     2.8266637   -3.6777273    0.8335937 
H     1.5204375   -3.8075127   -0.2264190 
