24
Energy =
C     0.1814162    2.2701060    0.3889556 
C    -0.4992311    2.6902494   -0.7108734 
C    -0.3183484    2.0559185   -1.8914402 
C     1.0378717    1.2207797    0.3017891 
C     1.2230550    0.5840440   -0.8875252 
C     0.5364120    1.0061184   -1.9844035 
O    -1.3894235    3.7675480   -0.6554050 
H    -1.4693302    4.1910224    0.2627222 
H     0.6669497    0.5075575   -2.9417192 
H     1.5710186    0.8936495    1.1908805 
H     0.0412058    2.7715226    1.3405073 
H    -0.8681172    2.3996880   -2.7607943 
C     2.1633258   -0.5963439   -0.9885541 
C     1.4073464   -1.9477398   -0.9982083 
H     2.9051818   -0.5855512   -0.1575570 
H     2.7590142   -0.4954953   -1.9249001 
C     2.3434389   -3.0878738   -1.3520821 
O     3.3591132   -3.4667337   -0.4787323 
O     2.2343395   -3.7160923   -2.5871684 
H     2.9337955   -4.4447624   -2.6487185 
N     0.7448115   -2.1866572    0.2970262 
H     0.6402032   -1.9443979   -1.8074870 
H     1.4437785   -2.1279361    1.0763150 
H     0.0114771   -1.4588905    0.4647754 
