24
Energy =
C     1.8317058    2.4685231    0.8378195 
C     0.5414888    2.5669196    1.2559611 
C    -0.3663741    1.6530792    0.8437235 
C     2.2052543    1.4599464    0.0097454 
C     1.2900886    0.5435734   -0.4109793 
C     0.0016350    0.6420377    0.0163706 
O     0.1237862    3.5927684    2.1096107 
H     0.8607242    4.2386173    2.3712592 
H    -0.7419274   -0.0852955   -0.3005171 
H     3.2431863    1.3847203   -0.3078651 
H     2.5677060    3.1939798    1.1675950 
H    -1.3914622    1.7416208    1.1869918 
C     1.7058971   -0.5937391   -1.3175433 
C     2.0423834   -1.8748110   -0.5286217 
H     2.5925388   -0.3101599   -1.9296917 
H     0.8892041   -0.8015690   -2.0452301 
C     2.2210039   -3.0610519   -1.4665283 
O     2.0586134   -4.3527001   -0.9798930 
O     2.5637907   -2.8779353   -2.8022403 
H     2.6642770   -3.7850155   -3.2397763 
N     3.2519157   -1.6398375    0.2827334 
H     1.1824870   -2.1417634    0.1300193 
H     2.9904986   -1.0723372    1.1228266 
H     3.5948899   -2.5555415    0.6646274 
