24
Energy =
C     0.9381222    2.5587034   -0.3133190 
C    -0.1347389    2.5024957    0.5201946 
C    -0.5493015    1.3066907    0.9958765 
C     1.5896833    1.4210556   -0.6640186 
C     1.1758776    0.2159475   -0.1830401 
C     0.0991104    0.1659383    0.6492513 
O    -0.8278129    3.6553832    0.9029511 
H    -0.4617473    4.5101498    0.4980747 
H    -0.2530742   -0.7864057    1.0389144 
H     2.4403812    1.4793847   -1.3389687 
H     1.2758601    3.5127221   -0.7034080 
H    -1.4094366    1.2756590    1.6558295 
C     1.8963730   -1.0562045   -0.5851845 
C     1.2856427   -1.7380857   -1.8297751 
H     1.8953424   -1.7719626    0.2679252 
H     2.9663867   -0.8329071   -0.7926402 
C    -0.1493985   -2.1998599   -1.6049261 
O    -0.4778918   -2.9195073   -0.4613089 
O    -1.1280228   -1.9717366   -2.5645935 
H    -2.0013773   -2.3704369   -2.2441668 
N     1.4384342   -0.8550293   -3.0019306 
H     1.8590781   -2.6755665   -2.0122518 
H     1.1155878   -1.3770819   -3.8528470 
H     0.7578710   -0.0621669   -2.9173881 
