24
Energy =
C     1.6364218    2.6895636    0.4768417 
C     0.5827752    3.0716986   -0.2798843 
C    -0.0323435    2.1757676   -1.0847412 
C     2.0740480    1.4062164    0.4386325 
C     1.4597330    0.4942074   -0.3683165 
C     0.3981331    0.8891972   -1.1274805 
O     0.1328611    4.3876946   -0.2325278 
H    -0.5537261    4.5066013    0.5038698 
H    -0.1086150    0.1817928   -1.7793928 
H     2.9171511    1.1176347    1.0598335 
H     2.1272583    3.4200304    1.1097128 
H    -0.8678378    2.4978362   -1.6974223 
C     1.9411821   -0.9453902   -0.4141675 
C     2.8652733   -1.2621974   -1.6210674 
H     1.0558488   -1.6205686   -0.4502751 
H     2.4747584   -1.2030896    0.5272659 
C     2.1745079   -1.0315529   -2.9551493 
O     2.3114565    0.1667594   -3.6493768 
O     1.3241825   -2.0099178   -3.4591335 
H     0.9566008   -1.6946843   -4.3479482 
N     4.1560511   -0.5436978   -1.5378559 
H     3.0561834   -2.3609624   -1.6046235 
H     4.2230856    0.0747274   -0.6983858 
H     4.9450453   -1.2288516   -1.4744779 
