24
Energy =
C     1.6523461    2.5548973    0.5686976 
C     0.3406611    2.7610595    0.8254953 
C    -0.5748320    1.8386798    0.4514629 
C     2.0532781    1.4273874   -0.0727466 
C     1.1381189    0.4906411   -0.4510852 
C    -0.1818497    0.7072308   -0.1874011 
O    -0.0671294    3.9202815    1.4781596 
H    -0.2564322    4.6588934    0.8100730 
H    -0.9322838   -0.0207748   -0.4837080 
H     3.1120653    1.2771033   -0.2726359 
H     2.3759439    3.2977778    0.8864190 
H    -1.6229548    2.0128515    0.6707358 
C     1.5827794   -0.7723171   -1.1657767 
C     2.1997216   -1.8408723   -0.2239434 
H     2.3291919   -0.5003487   -1.9470562 
H     0.7301403   -1.2291192   -1.7153839 
C     3.4926365   -1.3550395    0.4232570 
O     4.6378795   -1.2291937   -0.3529215 
O     3.5371134   -0.9571581    1.7541093 
H     4.4815899   -0.6710885    1.9784683 
N     1.2000591   -2.3813439    0.7313580 
H     2.5348562   -2.6877559   -0.8652855 
H     1.5173366   -2.2490139    1.7232403 
H     0.2852243   -1.8813488    0.6717282 
