24
Energy =
C     2.0482042    2.8238334   -0.6352708 
C     0.7945271    3.2772409   -0.3658637 
C    -0.2005960    2.3899792   -0.1232245 
C     2.2865888    1.4900012   -0.6581368 
C     1.2948646    0.5959860   -0.4312469 
C     0.0447076    1.0527495   -0.1491780 
O     0.5011277    4.6439724   -0.3305494 
H     1.2978630    5.2426307   -0.5201243 
H    -0.7641772    0.3576375    0.0593718 
H     3.3270579    0.9840822   -0.8933113 
H     2.8573556    3.5183868   -0.8315686 
H    -1.1942633    2.7655036    0.0961000 
C     1.6181096   -0.8925905   -0.4179651 
C     2.6013780   -1.3387652   -1.5476495 
H     0.6722314   -1.4691294   -0.5187397 
H     2.0504039   -1.1545020    0.5734444 
C     4.0443693   -0.8232749   -1.3548155 
O     4.3048543    0.5269166   -1.1130526 
O     5.1271584   -1.6810335   -1.4593268 
H     5.9763581   -1.1467168   -1.3370390 
N     2.5664679   -2.8053031   -1.6756781 
H     2.2619997   -0.8998455   -2.5135477 
H     2.8872547   -3.2483856   -0.7818438 
H     1.5928346   -3.1332195   -1.8749844 
