24
Energy =
C     0.8229048    2.6616817   -0.4709675 
C    -0.2066732    2.5672302    0.4125119 
C    -0.5218253    1.3647104    0.9445942 
C     1.5324775    1.5562332   -0.8144407 
C     1.2226575    0.3472684   -0.2701797 
C     0.1846636    0.2567752    0.6049836 
O    -0.9575762    3.6860119    0.7880761 
H    -0.6684235    4.5522524    0.3481034 
H    -0.0898777   -0.7061322    1.0279216 
H     2.3480628    1.6454423   -1.5277811 
H     1.0766354    3.6217803   -0.9050580 
H    -1.3503920    1.2976724    1.6420789 
C     1.9967089   -0.8910622   -0.6665929 
C     1.2948258   -1.6468230   -1.8154816 
H     2.1164747   -1.5550915    0.2178124 
H     3.0284615   -0.6026131   -0.9743394 
C     2.2351045   -2.6196631   -2.5264250 
O     2.4289498   -2.4893299   -3.8950478 
O     2.8993341   -3.6417006   -1.8484616 
H     2.6966562   -3.6344933   -0.8612540 
N     0.0800077   -2.3058863   -1.2974666 
H     1.0032087   -0.9040675   -2.5979111 
H    -0.4639708   -2.7082235   -2.0994140 
H     0.3382188   -3.1120522   -0.6804243 
