24
Energy =
C     1.2254480    2.6783686    0.1925190 
C     0.2385400    2.8955722   -0.7174501 
C    -0.1856839    1.8769896   -1.4996692 
C     1.7779773    1.4446855    0.3173743 
C     1.3454023    0.4161114   -0.4630533 
C     0.3623869    0.6414227   -1.3778572 
O    -0.3544970    4.1527887   -0.8685256 
H     0.0286571    4.8673830   -0.2594588 
H     0.0152073   -0.1619139   -2.0237401 
H     2.5781362    1.2829596    1.0364606 
H     1.5772316    3.4915949    0.8184394 
H    -0.9667075    2.0654767   -2.2284053 
C     1.9724240   -0.9572578   -0.3341096 
C     3.1985026   -1.1467364   -1.2474154 
H     1.2169666   -1.7415867   -0.5678152 
H     2.2822978   -1.1353146    0.7191825 
C     2.8312254   -1.0498850   -2.7240135 
O     3.1126195    0.0922240   -3.4674266 
O     2.1489281   -2.0981552   -3.3283208 
H     1.9915718   -1.8674260   -4.3013131 
N     4.2730568   -0.2221832   -0.8338992 
H     3.5548645   -2.1935187   -1.1075014 
H     5.1654719   -0.5225801   -1.2937921 
H     4.0767727    0.7355826   -1.2153876 
