24
Energy =
C     2.5139864    2.6366255   -0.0148005 
C     1.4824648    3.3016120   -0.5845030 
C     0.4297646    2.6159972   -1.0864509 
C     2.4996387    1.2807519    0.0490801 
C     1.4423954    0.5834997   -0.4530788 
C     0.4075428    1.2601427   -1.0258384 
O     1.5006806    4.6912336   -0.6481870 
H     1.9528695    5.0061202   -1.4994605 
H    -0.4418960    0.7220020   -1.4402890 
H     3.3371620    0.7596269    0.5069703 
H     3.3470126    3.2001507    0.3915713 
H    -0.3944366    3.1615434   -1.5341879 
C     1.4325404   -0.9281246   -0.3948743 
C     2.2560726   -1.5591972   -1.5360998 
H     0.3910034   -1.3195011   -0.4424148 
H     1.8333197   -1.2572889    0.5909395 
C     2.4884994   -3.0368109   -1.2653063 
O     3.7207890   -3.6069183   -1.5484913 
O     1.4651219   -3.8407911   -0.7821394 
H     0.8821396   -4.1104792   -1.5613877 
N     1.5554474   -1.3537320   -2.8167151 
H     3.2684936   -1.0908307   -1.5714357 
H     1.6190184   -0.3421745   -3.0799784 
H     2.0730134   -1.8649332   -3.5730278 
