24
Energy =
C     1.6324490    2.6458653    0.0788738 
C     0.4501484    2.6668860    0.7362494 
C    -0.2469518    1.5084799    0.9052418 
C     2.1131328    1.4758059   -0.4056580 
C     1.4233753    0.3200799   -0.2570847 
C     0.2404627    0.3373382    0.4149615 
O    -0.0247360    3.8867982    1.2278095 
H    -0.9157086    3.8236052    1.7076973 
H    -0.3217459   -0.5807207    0.5665350 
H     3.1202067    1.3448420   -1.0058238 
H     2.1855802    3.5691106   -0.0548097 
H    -1.1924824    1.5175917    1.4358755 
C     2.0256035   -0.9803643   -0.7737185 
C     2.7089090   -0.8571038   -2.1648975 
H     1.2265446   -1.7513912   -0.8535650 
H     2.7627658   -1.3565276   -0.0309763 
C     4.0111791   -0.0239439   -2.1515584 
O     4.0634102    1.2389324   -1.5627795 
O     5.1541395   -0.4992531   -2.7720409 
H     5.8823387    0.1989330   -2.6868190 
N     2.9183250   -2.2188154   -2.6873382 
H     2.0109280   -0.3196554   -2.8482770 
H     3.1890076   -2.1456427   -3.6973648 
H     3.7534137   -2.6435062   -2.2143908 
