24
Energy =
C     0.7298772    2.4887315   -0.1523781 
C    -0.1296981    2.2574288    0.8667211 
C    -0.3793055    0.9895698    1.2668118 
C     1.3572035    1.4521860   -0.7643919 
C     1.1229905    0.1739135   -0.3563241 
C     0.2410046   -0.0523819    0.6570871 
O    -0.7650543    3.3226383    1.4981504 
H    -0.2153025    3.6551078    2.2824665 
H     0.0230516   -1.0671229    0.9803640 
H     2.0356270    1.6534390   -1.5902033 
H     0.9030170    3.5085556   -0.4784392 
H    -1.0855847    0.8173275    2.0717751 
C     1.7980156   -0.9868187   -1.0537305 
C     0.9400831   -1.5350801   -2.2109966 
H     1.9782012   -1.8083972   -0.3234701 
H     2.8055497   -0.6879711   -1.4151894 
C     0.7039279   -0.5115869   -3.3263087 
O    -0.5979345   -0.1654080   -3.6612655 
O     1.7542968    0.0782917   -4.0312354 
H     2.6508127   -0.2568759   -3.7208856 
N     1.5530769   -2.7824097   -2.6995730 
H    -0.0708137   -1.7781252   -1.8043452 
H     0.9073964   -3.2313032   -3.3938065 
H     2.4463852   -2.5822436   -3.2078693 
