24
Energy =
C     1.7319111    2.8241945    0.2879536 
C     0.7277859    3.2311550   -0.5208538 
C     0.0428835    2.3144928   -1.2549317 
C     2.0584541    1.5104751    0.3706089 
C     1.3755716    0.5862922   -0.3610736 
C     0.3643626    0.9982635   -1.1755232 
O     0.4207540    4.5943865   -0.5785597 
H    -0.3358215    4.8234905   -1.2137973 
H    -0.1917615    0.2776847   -1.7709914 
H     2.8735617    1.2053667    1.0217546 
H     2.2739180    3.5634467    0.8672303 
H    -0.7619342    2.6326669   -1.9082034 
C     1.7473960   -0.8819151   -0.2807821 
C     2.7717515   -1.3142474   -1.3537232 
H     0.8289155   -1.5046968   -0.3727925 
H     2.1695241   -1.1076673    0.7236647 
C     2.2447387   -1.1474470   -2.7749428 
O     1.0009106   -1.6641486   -3.1206293 
O     3.0210719   -0.5415017   -3.7556444 
H     2.5079635   -0.5445219   -4.6279277 
N     4.0550583   -0.6243176   -1.1196625 
H     2.9317028   -2.4102440   -1.2370780 
H     4.7634440   -1.0000126   -1.7962558 
H     3.9523618    0.3835214   -1.3883618 
