24
Energy =
C     1.5739224    2.5889708   -0.1824638 
C     0.2467374    2.7926784   -0.0228819 
C    -0.6171674    1.7608270   -0.1572181 
C     2.0437892    1.3484373   -0.4682602 
C     1.1828931    0.2985664   -0.5896742 
C    -0.1547021    0.5161945   -0.4400406 
O    -0.2316444    4.0660503    0.2692675 
H    -0.2681531    4.2112364    1.2724472 
H    -0.8638746   -0.2999734   -0.5488146 
H     3.1138111    1.2007700   -0.5918012 
H     2.2541573    3.4272124   -0.0800165 
H    -1.6805794    1.9413146   -0.0401868 
C     1.7073277   -1.0914460   -0.9009267 
C     2.2966440   -1.8303054    0.3307013 
H     2.4920056   -1.0138459   -1.6878426 
H     0.9029561   -1.7189174   -1.3452817 
C     3.5235213   -1.1261019    0.8951928 
O     3.4130748   -0.1868729    1.9160262 
O     4.7695290   -1.3676396    0.3331831 
H     5.4647657   -0.8260535    0.8312327 
N     1.2563386   -2.1383198    1.3437662 
H     2.7043517   -2.8014875   -0.0339614 
H     1.5064372   -1.7320088    2.2784857 
H     0.3304499   -1.7201630    1.1014498 
