24
Energy =
C     1.5953047    2.6910828    0.2344043 
C     0.4505542    2.7080164    0.9681928 
C    -0.3378953    1.6097705    1.0019462 
C     1.9438451    1.5788581   -0.4606886 
C     1.1483328    0.4739422   -0.4300643 
C     0.0056199    0.4945705    0.3090496 
O     0.0625821    3.8374050    1.6962597 
H     0.7042290    4.6191570    1.6197139 
H    -0.6400965   -0.3792220    0.3507040 
H     2.8649921    1.5802937   -1.0380426 
H     2.2350861    3.5663783    0.2030316 
H    -1.2473065    1.6358782    1.5924440 
C     1.5384576   -0.7746625   -1.1892048 
C     2.1496839   -1.8579972   -0.2671963 
H     2.2558111   -0.5367915   -2.0082230 
H     0.6334283   -1.1821744   -1.6944003 
C     2.3244515   -3.1670389   -1.0175496 
O     1.7248838   -4.3303507   -0.5470658 
O     3.0503541   -3.2055989   -2.2040145 
H     3.0712883   -4.1590287   -2.5422262 
N     3.4313168   -1.4017016    0.2991416 
H     1.4432094   -2.0808711    0.5654026 
H     4.0867013   -1.1277460   -0.4717032 
H     3.2781273   -0.5655911    0.9098429 
