24
Energy =
C     2.6688969    2.1472451    0.2552553 
C     1.6194399    2.8283466    0.7706860 
C     0.3666652    2.3318275    0.6524252 
C     2.4677908    0.9702308   -0.3903953 
C     1.2076017    0.4702030   -0.5257291 
C     0.1573934    1.1570766    0.0060030 
O     1.8303092    4.0352465    1.4301724 
H     1.8104144    4.8100054    0.7764382 
H    -0.8549599    0.7678214   -0.0754792 
H     3.3204559    0.4313849   -0.7950867 
H     3.6692505    2.5500833    0.3711458 
H    -0.4659214    2.8773975    1.0841242 
C     0.9865485   -0.8521810   -1.2303455 
C     1.2223741   -2.0586772   -0.2861119 
H     1.6788204   -0.9146497   -2.0988208 
H    -0.0449661   -0.9050129   -1.6494094 
C     0.2209045   -2.1037066    0.8600599 
O    -1.1044141   -1.7268226    0.6735010 
O     0.6068813   -2.6006905    2.0969938 
H     0.6204843   -3.6081443    2.0389441 
N     1.1883581   -3.3289385   -1.0423977 
H     2.2207041   -1.9339272    0.1962548 
H     1.1462697   -3.1817867   -2.0786332 
H     2.0590116   -3.8789125   -0.8518354 
