24
Energy =
C     1.3016385    2.6040230    0.1966385 
C    -0.0497491    2.6087062    0.2616670 
C    -0.7468889    1.4955575   -0.0629402 
C     1.9609925    1.4880251   -0.2055152 
C     1.2656899    0.3680747   -0.5478227 
C    -0.0942237    0.3750255   -0.4648161 
O    -0.7229217    3.7548919    0.6731710 
H    -0.9265114    4.3540775   -0.1190490 
H    -0.6671391   -0.5146042   -0.7145234 
H     3.0474676    1.4913127   -0.2404711 
H     1.8486799    3.4969433    0.4779746 
H    -1.8294149    1.5075526    0.0086333 
C     1.9977566   -0.8856811   -0.9718168 
C     2.3546471   -1.7692426    0.2399378 
H     2.9267718   -0.6234313   -1.5270093 
H     1.3704240   -1.4604199   -1.6901912 
C     2.8085805   -3.1492565   -0.2055009 
O     2.2047414   -4.2832560    0.3217493 
O     3.8387789   -3.2909111   -1.1262220 
H     4.0008739   -4.2773559   -1.2852872 
N     3.3768250   -1.0874882    1.0562605 
H     1.4348513   -1.9320320    0.8509244 
H     3.5608562   -1.6550968    1.9185291 
H     4.2808684   -1.0681662    0.5245417 
