24
Energy =
C     0.5077708    2.4873019    0.1034510 
C    -0.2932206    2.5992753   -0.9917615 
C    -0.3068497    1.6100166   -1.9138591 
C     1.2869413    1.3765301    0.2712352 
C     1.2595079    0.3819907   -0.6549154 
C     0.4675475    0.5078808   -1.7531235 
O    -1.1045631    3.7198569   -1.1946601 
H    -1.0426616    4.4299251   -0.4731188 
H     0.4520070   -0.2699468   -2.5130721 
H     1.9811350    1.2696830    1.1393902 
H     0.5219150    3.2987342    0.8293144 
H    -0.9423794    1.7146882   -2.7866183 
C     2.1393531   -0.8341419   -0.4703114 
C     3.6304562   -0.5329923   -0.8053458 
H     1.7656056   -1.6774580   -1.0961053 
H     2.0355043   -1.2030276    0.5788072 
C     4.5578384   -0.7898782    0.3932716 
O     5.5829521   -1.7362393    0.3024777 
O     4.3632391   -0.0694033    1.5918400 
H     3.5834898    0.6019649    1.5918011 
N     4.0074272   -1.2864548   -2.0196223 
H     3.7690262    0.5572266   -0.9989407 
H     4.9685187   -0.9992331   -2.3281896 
H     4.0690193   -2.3111711   -1.8000796 
