24
Energy =
C     1.5619904    2.5620630   -0.7404824 
C     0.2344907    2.7933850   -0.6170608 
C    -0.6267172    1.7550002   -0.5170173 
C     2.0326552    1.2892521   -0.7746643 
C     1.1704163    0.2382030   -0.6880821 
C    -0.1639126    0.4795755   -0.5528931 
O    -0.2439248    4.0997328   -0.5837281 
H    -0.4346567    4.4360221   -1.5210701 
H    -0.8683770   -0.3445066   -0.4649867 
H     3.1019415    1.1180031   -0.8683750 
H     2.2419580    3.4045530   -0.8042364 
H    -1.6872496    1.9525346   -0.4013315 
C     1.6989281   -1.1805568   -0.7058067 
C     2.1958121   -1.6295336    0.6917120 
H     2.5353626   -1.2412000   -1.4370178 
H     0.9168789   -1.8865793   -1.0699425 
C     1.0614369   -1.6843492    1.7215839 
O    -0.1982953   -2.1447821    1.3485636 
O     1.2661739   -1.3095894    3.0510867 
H     2.2329966   -1.0904070    3.2357647 
N     2.8717425   -2.9409495    0.6045201 
H     2.9226163   -0.8631384    1.0483045 
H     2.9651451   -3.2899473   -0.3788115 
H     3.8409982   -2.8710940    0.9953401 
