24
Energy =
C     1.5246180    2.6432729    0.3439016 
C     0.7287430    3.1726142   -0.6138288 
C     0.1630625    2.3696296   -1.5440513 
C     1.7511440    1.3052921    0.3800247 
C     1.1760242    0.4890096   -0.5466291 
C     0.3842191    1.0307235   -1.5141392 
O     0.5014072    4.5445781   -0.6494869 
H    -0.3034873    4.7891710   -0.0831310 
H    -0.0684301    0.3971911   -2.2736362 
H     2.3963114    0.8934466    1.1522586 
H     1.9822040    3.3011395    1.0748878 
H    -0.4615990    2.8082693   -2.3151705 
C     1.4448579   -0.9993494   -0.5205292 
C     2.7770025   -1.3601565   -1.2097557 
H     0.6183364   -1.5569161   -1.0186108 
H     1.4569881   -1.3487915    0.5366745 
C     3.1613297   -2.8026822   -0.9244367 
O     2.1943986   -3.7981045   -0.8208879 
O     4.5016980   -3.1405209   -0.7895950 
H     4.5738176   -4.1371405   -0.6269267 
N     2.6598669   -1.1109484   -2.6585198 
H     3.6008047   -0.7439057   -0.7776909 
H     2.6916831   -0.0787118   -2.8302343 
H     3.5041447   -1.5008460   -3.1446104 
