24
Energy =
C     1.7558015    2.5993206    0.4634897 
C     0.4312331    2.8320467    0.2621219 
C    -0.3305162    1.8864416   -0.3333096 
C     2.3100164    1.4251768    0.0686680 
C     1.5443179    0.4742482   -0.5345535 
C     0.2181819    0.7103372   -0.7302330 
O    -0.1713911    4.0303846    0.6580920 
H     0.4653622    4.6896962    1.0923037 
H    -0.4113312   -0.0388531   -1.2046515 
H     3.3694352    1.2532782    0.2410364 
H     2.3742979    3.3511108    0.9417500 
H    -1.3859360    2.0841401   -0.4866361 
C     2.1511090   -0.8437924   -0.9608789 
C     1.8323100   -1.9832125    0.0364925 
H     3.2536668   -0.7515525   -1.0887137 
H     1.7546268   -1.1101765   -1.9683353 
C     2.2673509   -3.3231911   -0.5283908 
O     1.3593073   -4.1053256   -1.2279819 
O     3.5875473   -3.7416869   -0.4335964 
H     3.7128491   -4.1788824    0.4674595 
N     2.4566530   -1.7279458    1.3472577 
H     0.7280768   -2.0625350    0.1683928 
H     3.4706282   -1.4939240    1.2234018 
H     1.9964842   -0.9028451    1.7993337 
