24
Energy =
C     1.3777306    2.5760879    0.0791000 
C     0.1072540    2.4983920    0.5585687 
C    -0.5265579    1.3007751    0.5847401 
C     1.9941072    1.4546539   -0.3665578 
C     1.3629055    0.2562307   -0.3571674 
C     0.0967912    0.1791973    0.1345979 
O    -0.5685800    3.6280924    1.0302828 
H    -0.0278519    4.4848666    0.9784177 
H    -0.4248482   -0.7735966    0.1737785 
H     3.0847267    1.4035163   -0.8172334 
H     1.9008661    3.5253613    0.0498080 
H    -1.5376154    1.2525221    0.9745351 
C     2.1118939   -0.9867385   -0.8208009 
C     2.9798147   -0.7700923   -2.0924444 
H     1.3811535   -1.7973074   -1.0411057 
H     2.7553822   -1.3511877    0.0096820 
C     4.2135421    0.1326852   -1.8626136 
O     4.1037237    1.3721203   -1.2334597 
O     5.4607402   -0.2536340   -2.3234237 
H     6.1256637    0.4795250   -2.1106205 
N     3.3447962   -2.0960347   -2.6211367 
H     2.3561210   -0.2456825   -2.8534192 
H     3.7526555   -1.9678742   -3.5782156 
H     4.1274654   -2.4923440   -2.0451322 
