24
Energy =
C     1.8185170    2.6453177   -0.0172152 
C     0.5901355    2.8396291    0.5327325 
C    -0.2935381    1.8165366    0.5734637 
C     2.1545482    1.4318061   -0.5240580 
C     1.2628111    0.4033250   -0.4895651 
C     0.0372463    0.6007714    0.0686891 
O     0.2124418    4.0765220    1.0646249 
H     0.9271721    4.7926035    0.9934535 
H    -0.6851599   -0.2105610    0.1153282 
H     3.1446015    1.2849487   -0.9507174 
H     2.5354647    3.4587456   -0.0496445 
H    -1.2687035    1.9845324    1.0176993 
C     1.6404940   -0.9561921   -1.0349637 
C     2.1607275   -1.9000820    0.0685636 
H     2.4204291   -0.8615234   -1.8245774 
H     0.7552815   -1.4091491   -1.5364390 
C     2.2813805   -3.3314438   -0.4381892 
O     2.3098047   -3.6176624   -1.8000043 
O     2.3799589   -4.3728592    0.4749481 
H     2.4667029   -5.2445103   -0.0325565 
N     3.4527174   -1.3932602    0.5691330 
H     1.4181605   -1.9442712    0.8999501 
H     3.2723058   -0.5846611    1.2088867 
H     3.8969312   -2.1288532    1.1736198 
