24
Energy =
C     1.2141294    2.4547234    0.2192193 
C    -0.1189798    2.3387465    0.4631636 
C    -0.7363292    1.1498253    0.2580045 
C     1.9084725    1.3797245   -0.2260032 
C     1.2966131    0.1918537   -0.4473777 
C    -0.0342048    0.0751191   -0.1905025 
O    -0.8766546    3.4198478    0.9243852 
H    -0.3430889    4.2727522    1.0548734 
H    -0.5452602   -0.8727315   -0.3381829 
H     3.0601864    1.3663171   -0.4864831 
H     1.7255410    3.3976944    0.3769433 
H    -1.7986732    1.0700259    0.4618583 
C     2.1261550   -1.0033080   -0.8987481 
C     3.1974845   -0.6663847   -1.9743774 
H     1.4525023   -1.7829224   -1.3207588 
H     2.6217289   -1.4538035   -0.0108996 
C     4.3643212    0.2005488   -1.4482023 
O     4.1356560    1.3695191   -0.7233116 
O     5.6754754   -0.1386965   -1.7357240 
H     6.2855275    0.5636829   -1.3365026 
N     3.6603338   -1.9364987   -2.5612821 
H     2.7109418   -0.0610838   -2.7746156 
H     4.2474853   -1.7179621   -3.4019211 
H     4.3160566   -2.4051148   -1.8891342 
