24
Energy =
C     1.4054308    2.0023088    0.4954307 
C     0.7190544    2.8873815   -0.2750850 
C     0.2877525    2.5125759   -1.5001400 
C     1.6582659    0.7508007    0.0357428 
C     1.2254520    0.3714152   -1.1982985 
C     0.5360082    1.2608267   -1.9641540 
O     0.4439209    4.1861181    0.1642562 
H     0.7800119    4.3817771    1.1012603 
H     0.1769267    0.9730851   -2.9476991 
H     2.2008709    0.0517765    0.6679881 
H     1.7505555    2.2907323    1.4824100 
H    -0.2615606    3.2305542   -2.0995288 
C     1.4959572   -1.0302784   -1.7064065 
C     0.4309790   -2.0640982   -1.2595620 
H     2.4967196   -1.3646414   -1.3474429 
H     1.5674551   -1.0306799   -2.8161641 
C     0.4039811   -2.2585562    0.2499816 
O    -0.4203001   -1.4873494    1.0647107 
O     1.2727653   -3.1696437    0.8380231 
H     1.1187399   -3.1646704    1.8379629 
N    -0.8964710   -1.7352563   -1.8126567 
H     0.7341027   -3.0606374   -1.6546501 
H    -1.2764916   -0.8772996   -1.3438456 
H    -0.8292374   -1.5483091   -2.8394629 
