24
Energy =
C     1.1506490    2.6619124   -0.4896786 
C    -0.0875378    2.5863228    0.0514299 
C    -0.5912874    1.3852173    0.4272549 
C     1.8822777    1.5321128   -0.6445558 
C     1.3889444    0.3222928   -0.2834517 
C     0.1456202    0.2533146    0.2675601 
O    -0.8465027    3.7404176    0.2158235 
H    -0.6670684    4.1617512    1.1206771 
H    -0.2678150   -0.7010763    0.5829579 
H     2.9644260    1.4776416   -1.1110468 
H     1.5456334    3.6236129   -0.7979924 
H    -1.5871714    1.3387922    0.8554599 
C     2.2614894   -0.9185601   -0.4345264 
C     3.0913483   -0.9500376   -1.7577597 
H     1.6129813   -1.8207622   -0.3927851 
H     2.9528661   -0.9771202    0.4353606 
C     4.2281585    0.0933528   -1.7867604 
O     3.9738522    1.4435637   -1.5473832 
O     5.5317017   -0.2811456   -2.0633051 
H     6.1119027    0.5473857   -2.0721093 
N     3.5987319   -2.3147160   -1.9932377 
H     2.4290765   -0.6734346   -2.6108444 
H     4.3597757   -2.5359496   -1.3054978 
H     2.8402429   -3.0289042   -1.9009777 
