24
Energy =
C     2.1183716    2.7183695    0.1916585 
C     0.9725811    3.2638080   -0.2769229 
C     0.0149401    2.4717102   -0.8108381 
C     2.3045548    1.3743770    0.1404156 
C     1.3398908    0.5670549   -0.3831004 
C     0.1944668    1.1273434   -0.8656860 
O     0.7832727    4.6405885   -0.2177678 
H     0.3589705    4.9072321    0.6634372 
H    -0.5798379    0.5048607   -1.3078919 
H     3.2349139    0.9469046    0.5042157 
H     2.8864427    3.3685726    0.5967275 
H    -0.8917499    2.9223575   -1.2008172 
C     1.5483298   -0.9347159   -0.4492232 
C     2.4722030   -1.3571004   -1.6106497 
H     0.5697144   -1.4544949   -0.5574337 
H     1.9785493   -1.2907250    0.5117155 
C     1.9274576   -0.9007843   -2.9649045 
O     2.7771172   -0.4341577   -3.9636422 
O     0.5746834   -1.0476238   -3.2540155 
H     0.4099956   -0.7268669   -4.1997668 
N     3.8406174   -0.8761164   -1.3319142 
H     2.4759348   -2.4699155   -1.6636303 
H     4.2734806   -1.4896180   -0.6025435 
H     4.4348528   -0.9907910   -2.1898580 
