24
Energy =
C     2.5372679    2.8395580   -0.7524657 
C     1.2658480    3.3221150   -0.7481265 
C     0.2272112    2.4676821   -0.6056004 
C     2.7621526    1.5085139   -0.6121587 
C     1.7171227    0.6488469   -0.4585035 
C     0.4464478    1.1360505   -0.4637851 
O     0.9994023    4.6878756   -0.8904948 
H     1.8287152    5.2622175   -0.9948783 
H    -0.4008648    0.4626100   -0.3634333 
H     3.7836066    1.1362571   -0.6254054 
H     3.3763613    3.5163789   -0.8712029 
H    -0.7822974    2.8636918   -0.6111182 
C     1.9649143   -0.8373135   -0.3248480 
C     2.0202187   -1.5258716   -1.7027287 
H     1.1714326   -1.3080408    0.2984627 
H     2.9214521   -1.0058159    0.2211549 
C     2.5569582   -2.9412559   -1.5784036 
O     1.7358174   -3.9801333   -1.1557542 
O     3.8954547   -3.1949079   -1.8410134 
H     4.0763076   -4.1801149   -1.6922296 
N     0.6841150   -1.4816822   -2.3273928 
H     2.7520391   -0.9859736   -2.3493356 
H     0.7337861   -1.9220407   -3.2773092 
H     0.0228109   -2.0759799   -1.7710340 
