24
Energy =
C     1.3046819    2.3826604   -1.0441174 
C    -0.0345423    2.4931655   -0.8342944 
C    -0.7568891    1.3906744   -0.5313777 
C     1.9118473    1.1721597   -0.9540011 
C     1.1833924    0.0599742   -0.6602494 
C    -0.1554993    0.1779532   -0.4417967 
O    -0.6914679    3.7246132   -0.9237380 
H    -0.0797613    4.5053846   -1.1357426 
H    -0.7504347   -0.6954480   -0.1844155 
H     2.9844005    1.1002793   -1.1162732 
H     1.8932194    3.2624007   -1.2814628 
H    -1.8222532    1.4927070   -0.3561983 
C     1.8634487   -1.2868951   -0.5349426 
C     2.4287403   -1.5200368    0.8866080 
H     2.6899967   -1.3510231   -1.2772484 
H     1.1503820   -2.1052949   -0.7863448 
C     1.3221912   -1.4996980    1.9348914 
O     1.2161772   -0.4334873    2.8197011 
O     0.3879074   -2.5273931    1.9934506 
H    -0.2575819   -2.3373671    2.7496293 
N     3.2380691   -2.7644274    0.9276274 
H     3.0966621   -0.6673929    1.1500918 
H     2.8376446   -3.4486939    1.6168730 
H     3.2337180   -3.2721956    0.0121303 
