24
Energy =
C     0.8938542    2.5950909   -0.4530215 
C    -0.2270791    2.5752408    0.3044180 
C    -0.6712735    1.4088000    0.8252775 
C     1.5715076    1.4449365   -0.6987885 
C     1.1292794    0.2649215   -0.1806874 
C     0.0011175    0.2544474    0.5840707 
O    -0.9202259    3.7555716    0.5535668 
H    -1.6091906    3.9242160   -0.1712432 
H    -0.3712466   -0.6772090    1.0044806 
H     2.4657365    1.4729591   -1.3167572 
H     1.2423699    3.5387178   -0.8582446 
H    -1.5681589    1.4074853    1.4357944 
C     1.8766584   -1.0229796   -0.4658706 
C     1.3494441   -1.7729886   -1.7093036 
H     1.8200166   -1.6921466    0.4224332 
H     2.9577711   -0.8059306   -0.6140018 
C    -0.1020980   -2.2132201   -1.5596712 
O    -0.5086953   -2.8894270   -0.4147578 
O    -1.0190654   -2.0029662   -2.5824895 
H    -1.9139519   -2.3852705   -2.3043458 
N     1.5926894   -0.9602793   -2.9165102 
H     1.9261236   -2.7221742   -1.7962821 
H     1.3253205   -1.5288651   -3.7567191 
H     0.9164092   -0.1595912   -2.9253845 
