24
Energy =
C     1.9169597    2.6414363    0.4503922 
C     0.5975392    2.9230750    0.2820834 
C    -0.2095904    2.0142198   -0.3103277 
C     2.4206840    1.4544614    0.0268157 
C     1.6084713    0.5369772   -0.5685455 
C     0.2884148    0.8256530   -0.7359161 
O     0.0466136    4.1363473    0.7065379 
H     0.7133372    4.7642095    1.1424590 
H    -0.3762945    0.1087365   -1.2112974 
H     3.4779138    1.2460428    0.1678370 
H     2.5719028    3.3649272    0.9237421 
H    -1.2600152    2.2521492   -0.4389941 
C     2.1595763   -0.7930405   -1.0393798 
C     1.7434986   -1.9670389   -0.1135147 
H     3.2695885   -0.7637092   -1.1257321 
H     1.7873513   -0.9804436   -2.0729448 
C     2.0290634   -3.3248485   -0.7625335 
O     2.9564436   -3.4273636   -1.7930007 
O     1.4048187   -4.4842625   -0.3056644 
H     0.8109927   -4.3021949    0.4910393 
N     2.3577940   -1.8422072    1.2313301 
H     0.6373560   -1.9351894    0.0073883 
H     2.9530845   -2.6753070    1.4627890 
H     2.9934762   -1.0151221    1.3058897 
