24
Energy =
C     1.2812507    2.6201537    0.2814883 
C    -0.0636865    2.6003553    0.4774268 
C    -0.7677159    1.4886128    0.1669655 
C     1.9136237    1.5298282   -0.2226364 
C     1.2067925    0.4073235   -0.5334077 
C    -0.1408352    0.3950421   -0.3359463 
O    -0.7459130    3.7060308    0.9946897 
H    -0.1485978    4.4970878    1.2100449 
H    -0.7250179   -0.4898275   -0.5747276 
H     2.9899402    1.5640192   -0.3755374 
H     1.8542802    3.5076203    0.5281939 
H    -1.8403094    1.4863126    0.3283610 
C     1.9084974   -0.8194049   -1.0853905 
C     2.5031239   -1.7455373    0.0094244 
H     2.7177061   -0.5007586   -1.7822057 
H     1.2025033   -1.4087031   -1.7113281 
C     3.6747162   -1.1050706    0.7653874 
O     4.5727811   -0.3021163    0.0718401 
O     3.9364203   -1.3744834    2.1070211 
H     3.2866053   -2.0539379    2.4721638 
N     1.4362856   -2.2470770    0.9002287 
H     2.9661253   -2.6183816   -0.5060358 
H     0.9883888   -1.4512281    1.4163497 
H     0.6876422   -2.7118659    0.3330187 
