24
Energy =
C     1.6534572    2.6813066    0.3795613 
C     0.7741252    3.2094057   -0.5030237 
C     0.1159654    2.4033169   -1.3674043 
C     1.8826619    1.3433665    0.3968570 
C     1.2202190    0.5248426   -0.4676230 
C     0.3394211    1.0645500   -1.3557102 
O     0.5429364    4.5813445   -0.5186452 
H     1.1956996    5.0474238   -1.1389489 
H    -0.1860719    0.4279395   -2.0638033 
H     2.5961544    0.9331015    1.1073098 
H     2.1682806    3.3389666    1.0714299 
H    -0.5897212    2.8379154   -2.0674683 
C     1.4885590   -0.9640342   -0.4652132 
C     2.6477528   -1.3293829   -1.4076287 
H     0.5758065   -1.5216223   -0.7771183 
H     1.7186009   -1.2978963    0.5721093 
C     3.0915649   -2.7644199   -1.1690367 
O     2.2827306   -3.8308220   -1.5464689 
O     4.3010005   -3.0174460   -0.5355051 
H     4.4254380   -4.0187334   -0.4521337 
N     2.2176026   -1.0799690   -2.8013700 
H     3.5349831   -0.7008544   -1.1531151 
H     2.7917137   -0.3059989   -3.2104273 
H     2.3682137   -1.9216863   -3.4099965 
