24
Energy =
C     0.2894551    2.1922064    0.3941319 
C    -0.4795621    2.6136240   -0.6363536 
C    -0.4196785    1.9789406   -1.8295110 
C     1.1177105    1.1282413    0.2366780 
C     1.1845314    0.4848868   -0.9622618 
C     0.4062637    0.9144770   -1.9949077 
O    -1.3277244    3.7039778   -0.4717138 
H    -2.2385240    3.4040890   -0.1420415 
H     0.4430814    0.4126967   -2.9586308 
H     1.7236348    0.7938705    1.0759418 
H     0.2366593    2.7156384    1.3427412 
H    -1.0350119    2.3327018   -2.6501528 
C     2.0936476   -0.7115600   -1.1388307 
C     1.3474823   -2.0447614   -0.9232004 
H     2.9506985   -0.6610614   -0.4284506 
H     2.5440412   -0.6837477   -2.1568241 
C     2.1932817   -3.2348230   -1.3677506 
O     3.5464117   -3.0926450   -1.6474306 
O     1.6077074   -4.4869066   -1.5007584 
H     1.0830416   -4.5200822   -2.3618535 
N     0.9672025   -2.1554711    0.4975637 
H     0.4359785   -2.0648726   -1.5640535 
H     0.1155947   -1.5719735    0.6696392 
H     0.6851508   -3.1451657    0.7104664 
