24
Energy =
C     1.7459219    2.4421013   -0.8600215 
C     0.4136129    2.6706220   -0.7145176 
C    -0.4262953    1.6282360   -0.5234370 
C     2.2289239    1.1744707   -0.8175225 
C     1.3836561    0.1223955   -0.6318836 
C     0.0514115    0.3588484   -0.4801167 
O    -0.1176325    3.9636365   -0.7574745 
H     0.5769370    4.6919870   -0.8826038 
H    -0.6369696   -0.4650196   -0.3128487 
H     3.2980076    1.0060545   -0.9255331 
H     2.4282909    3.2721784   -1.0067882 
H    -1.4857159    1.8243416   -0.4000138 
C     1.9226995   -1.2939293   -0.5678246 
C     2.2102535   -1.7548082    0.8779328 
H     2.8542548   -1.3753078   -1.1723809 
H     1.1945610   -1.9906466   -1.0372755 
C     3.2736637   -0.8932664    1.5530464 
O     3.1693900   -0.5440832    2.8958242 
O     4.4256985   -0.5400282    0.8579066 
H     5.0353003   -0.0238776    1.4801410 
N     0.9403984   -1.8031269    1.6287848 
H     2.6594991   -2.7732665    0.8367015 
H     0.3779310   -2.6213486    1.2988258 
H     1.1355367   -1.9725203    2.6458591 
