24
Energy =
C     2.9041845    2.5877928   -0.3736918 
C     1.7549204    3.2973637   -0.2938488 
C     0.5637558    2.6563107   -0.2736415 
C     2.8659904    1.2326137   -0.4412959 
C     1.6703313    0.5803546   -0.4230880 
C     0.5172816    1.3013327   -0.3407408 
O     1.7979399    4.6864232   -0.2253550 
H     1.7879397    5.0914911   -1.1548754 
H    -0.4475378    0.8004798   -0.3270008 
H     3.7971621    0.6752184   -0.5071870 
H     3.8520817    3.1147381   -0.3790364 
H    -0.3502095    3.2363542   -0.2002406 
C     1.6271506   -0.9288337   -0.5116533 
C     1.8660477   -1.4391006   -1.9539393 
H     0.6564992   -1.3221645   -0.1320617 
H     2.4045724   -1.3467098    0.1682262 
C     2.0713676   -2.9433969   -1.9666312 
O     1.0580437   -3.7990316   -1.5453708 
O     3.2973511   -3.4778359   -2.3411627 
H     3.2359507   -4.4865891   -2.2947248 
N     0.7521799   -1.0521304   -2.8370330 
H     2.8119409   -1.0051148   -2.3526055 
H    -0.1525674   -1.4111508   -2.4474403 
H     0.6866374   -0.0095008   -2.8957938 
