24
Energy =
C     0.6954304    2.4579969    0.1000708 
C    -0.4202344    2.1410538    0.7959723 
C    -0.7846240    0.8373141    0.9233312 
C     1.4532392    1.4844161   -0.4647252 
C     1.0979719    0.1773425   -0.3318289 
C    -0.0308369   -0.1404646    0.3591799 
O    -1.1730249    3.1717476    1.3691242 
H    -2.0044112    2.8599207    1.8581861 
H    -0.3364767   -1.1781729    0.4616182 
H     2.3397365    1.7601283   -1.0314856 
H     0.9718660    3.5016502   -0.0046429 
H    -1.6807807    0.5765566    1.4743493 
C     1.9262694   -0.9085188   -0.9828490 
C     1.3878945   -1.2814337   -2.3806140 
H     1.9345152   -1.8089621   -0.3290854 
H     2.9900999   -0.5887928   -1.0620470 
C     1.4223109   -0.0907547   -3.3412905 
O     0.2281031    0.5059085   -3.7268403 
O     2.6220369    0.4250438   -3.8300055 
H     3.4022778   -0.1305024   -3.5100500 
N     2.1738096   -2.4168093   -2.8941464 
H     0.3148895   -1.5766133   -2.2936457 
H     2.0123342   -3.2545527   -2.2859733 
H     1.8186669   -2.6818068   -3.8449387 
