24
Energy =
C     0.9011144    2.2862969    0.3973531 
C    -0.1399911    2.7576497   -0.3269653 
C    -0.5662918    2.0817246   -1.4185315 
C     1.5172751    1.1323973    0.0349234 
C     1.0965642    0.4483864   -1.0648192 
C     0.0448097    0.9266105   -1.7869845 
O    -0.7704643    3.9401431    0.0475410 
H    -1.5291573    3.7509827    0.6931263 
H    -0.3124342    0.3883849   -2.6616127 
H     2.3432477    0.7563639    0.6333104 
H     1.2343430    2.8400147    1.2681128 
H    -1.3989292    2.4738473   -1.9930275 
C     1.7655845   -0.8493372   -1.4594626 
C     1.0734760   -2.0616881   -0.8073701 
H     2.8412084   -0.8332705   -1.1726843 
H     1.7477781   -0.9536472   -2.5684829 
C     1.5457772   -3.3583242   -1.4435848 
O     2.7475294   -3.9432929   -1.0615580 
O     0.7980192   -3.9382907   -2.4580781 
H     1.2691478   -4.7780652   -2.7711714 
N     1.2999179   -2.0289926    0.6509424 
H    -0.0215641   -2.0092769   -1.0154479 
H     0.7967575   -2.8344901    1.0949517 
H     2.3180804   -2.1874464    0.8470501 
