24
Energy =
C     2.5233336    2.6269082    0.0224319 
C     1.4599899    3.2897946   -0.5058244 
C     0.4147625    2.5893369   -1.0015567 
C     2.5349374    1.2701817    0.0527353 
C     1.4804784    0.5641054   -0.4411610 
C     0.4205406    1.2325129   -0.9738555 
O     1.4166596    4.6866302   -0.5541057 
H     2.2348282    5.1396473   -0.1611859 
H    -0.4256745    0.6876203   -1.3857059 
H     3.3944723    0.7541778    0.4745875 
H     3.3674314    3.1802183    0.4200946 
H    -0.4254688    3.1306160   -1.4230446 
C     1.5029752   -0.9485000   -0.4229179 
C     2.3190957   -1.5321147   -1.5943598 
H     0.4692098   -1.3608181   -0.4632542 
H     1.9283400   -1.2947190    0.5465807 
C     2.5793296   -3.0128143   -1.3697737 
O     3.8196941   -3.5523083   -1.6765651 
O     1.5734190   -3.8487321   -0.9043617 
H     0.9899300   -4.1052373   -1.6876756 
N     1.5955979   -1.3017825   -2.8578649 
H     3.3229023   -1.0455737   -1.6313730 
H     1.6386135   -0.2819174   -3.0922614 
H     2.1108822   -1.7808680   -3.6364001 
