24
Energy =
C     2.2253019    2.7678911   -0.1253381 
C     1.0281370    3.2508832   -0.5530194 
C     0.0536970    2.3894661   -0.9237474 
C     2.4403906    1.4289905   -0.0702118 
C     1.4577362    0.5609681   -0.4376859 
C     0.2630282    1.0497333   -0.8704111 
O     0.7744527    4.6242627   -0.6238600 
H     1.5511956    5.2041776   -0.3252216 
H    -0.5291808    0.3725819   -1.1813097 
H     3.4040874    1.0574481    0.2699746 
H     3.0136588    3.4511870    0.1717296 
H    -0.8953863    2.7876243   -1.2660759 
C     1.7045893   -0.9309034   -0.3946755 
C     2.4532770   -1.4318808   -1.6475651 
H     0.7437874   -1.4871267   -0.3027173 
H     2.2866335   -1.1785312    0.5218752 
C     2.9479822   -2.8607370   -1.4659986 
O     2.4386505   -3.6832018   -0.4656254 
O     3.9224409   -3.3594345   -2.3200012 
H     4.1164654   -4.3197528   -2.0647590 
N     1.5666668   -1.3142497   -2.8203284 
H     3.3739856   -0.8211719   -1.8007382 
H     1.5108802   -0.3082613   -3.1037442 
H     2.0093730   -1.8090387   -3.6341098 
