24
Energy =
C     0.7491732    2.3409975    0.2303848 
C    -0.2873089    2.7274403   -0.5605303 
C    -0.6364038    1.9675649   -1.6232746 
C     1.4311647    1.2010593   -0.0477064 
C     1.0869436    0.4406810   -1.1228817 
C     0.0418178    0.8260845   -1.9056315 
O    -1.0109857    3.8963935   -0.3034290 
H    -0.6915671    4.4073247    0.5123920 
H    -0.2588825    0.2231651   -2.7588856 
H     2.2482701    0.8954465    0.6011187 
H     1.0318903    2.9393671    1.0895728 
H    -1.4688114    2.2850702   -2.2418588 
C     1.8309774   -0.8419207   -1.4218646 
C     1.1808552   -2.0482566   -0.7176129 
H     2.8954135   -0.7540847   -1.1076816 
H     1.8514236   -1.0114586   -2.5227561 
C     1.7285375   -3.3540205   -1.2691466 
O     2.9525922   -3.8519589   -0.8376754 
O     1.0278650   -4.0308601   -2.2568797 
H     1.5456498   -4.8626130   -2.5123213 
N     1.3711273   -1.9239101    0.7408292 
H     0.0896754   -2.0598513   -0.9513495 
H     0.8848683   -2.7195694    1.2199716 
H     2.3890979   -2.0332207    0.9687852 
