23
UFF-Energy = 0.0890927
C    -5.9080990    1.9518782    0.1239858 
C    -5.8005483    0.5998486    0.1362122 
C    -4.5919724    0.0063270   -0.0078839 
C    -4.7989320    2.7567779   -0.0305870 
C    -3.5832564    2.1217492   -0.1727637 
C    -3.4926932    0.7685209   -0.1620108 
H    -2.6623644    2.6634884   -0.3556440 
H    -2.5329579    0.2791565   -0.2885623 
H    -6.6893450   -0.0070402    0.2733713 
H    -6.8984971    2.3565386    0.2991194 
O    -4.4518646   -1.3857292   -0.0011634 
H    -5.3257623   -1.8857535    0.1185888 
C    -4.9015033    4.1417449   -0.0424406 
C    -6.0795901    4.7757419   -0.3776725 
C    -6.1722403    6.1275076   -0.3888003 
C    -5.1046160    6.8858044   -0.0658500 
C    -3.9373734    6.2985420    0.2685129 
C    -3.8299973    4.9478656    0.2803897 
H    -2.8800980    4.5442882    0.6106381 
H    -3.0828119    6.9129832    0.5398499 
H    -6.9592690    4.2313196   -0.7001730 
H    -7.1075493    6.6047603   -0.6695967 
H    -5.1848290    7.9695839   -0.0751251 
