24
Energy =
C     0.8483221    2.5688728   -1.1926180 
C    -0.0986024    2.7430451   -0.2425866 
C    -0.3931649    1.7234617    0.6073577 
C     1.5059112    1.3862141   -1.3007955 
C     1.2219218    0.3655015   -0.4454637 
C     0.2622062    0.5393766    0.5044586 
O    -0.7541998    3.9758425   -0.1638401 
H    -1.4523768    4.0261346    0.5701551 
H     0.0069505   -0.2754077    1.1780688 
H     2.2582585    1.2653320   -2.0761926 
H     1.0701827    3.3888838   -1.8672297 
H    -1.1568582    1.8504013    1.3671278 
C     1.9381569   -0.9618592   -0.5737475 
C     1.1093599   -1.9786695   -1.3875997 
H     2.1541268   -1.3783428    0.4359446 
H     2.9325476   -0.8093334   -1.0524805 
C     1.9517041   -3.1782439   -1.8261079 
O     3.0825106   -3.5359448   -1.1010288 
O     1.5919351   -3.9489252   -2.9306072 
H     0.7176287   -3.6473135   -3.3345910 
N    -0.0642396   -2.3858159   -0.5930655 
H     0.7694220   -1.4791212   -2.3247021 
H    -0.7135533   -2.9465885   -1.1947638 
H     0.2395073   -3.0213602    0.1853530 
