13
UFF-Energy = 0.0727443
C    -5.2634689    2.1973835    0.0502091 
C    -3.9634032    1.3774780   -0.0412595 
H    -5.3121682    2.9454449   -0.7717788 
H    -5.3066249    2.7449628    1.0185669 
H    -6.1486888    1.5302716   -0.0288313 
C    -2.7345233    2.2794829   -0.0181006 
N    -3.9394233    0.3348514    1.0113595 
H    -3.9330710    0.8749184   -1.0377743 
H    -3.0881658    0.4242015    1.6185872 
H    -4.7517282    0.4117826    1.6693676 
O    -2.5231839    3.1558061    1.0379000 
O    -1.7964249    2.2063544   -1.0377381 
H    -1.1996256    1.4083106   -0.8743704 
