13
UFF-Energy = 0.0628117
C    -5.2327626    2.3533695    0.1537461 
C    -4.0396997    1.3938286    0.0375381 
H    -5.1261251    3.2073790   -0.5504823 
H    -5.2866545    2.7589836    1.1894579 
H    -6.1845533    1.8261332   -0.0667530 
C    -2.6955405    2.1157712    0.2172043 
N    -4.2275698    0.3251876    1.0313416 
H    -4.0280949    0.9648111   -0.9921566 
H    -5.1079515   -0.2049920    0.8229471 
H    -3.4484119   -0.3711119    0.9668000 
O    -2.6564996    3.4308535    0.6686190 
O    -1.4922754    1.4880975   -0.1038661 
H    -1.6362111    0.5274549   -0.3706879 
