13
UFF-Energy = 0.0518899
C    -5.1328274    2.1067074   -0.2500419 
C    -3.8486950    1.2991881   -0.0351687 
H    -5.0022012    2.8372196   -1.0788140 
H    -5.3984310    2.6595087    0.6778019 
H    -5.9755897    1.4308918   -0.5073508 
C    -2.6531315    2.2236374    0.1974715 
N    -4.0698094    0.3758279    1.0887271 
H    -3.6166322    0.7237368   -0.9646801 
H    -4.7999608   -0.3274766    0.8212666 
H    -3.1940053   -0.1779890    1.2537116 
O    -1.8253547    2.5357412   -0.8725802 
O    -2.4061242    2.8161031    1.4348235 
H    -3.0602874    2.4856428    2.1292458 
