13
UFF-Energy = 0.0423934
C    -5.0352542    2.5416704    0.8691659 
C    -4.2031701    1.6093839   -0.0271545 
H    -5.1596421    3.5345724    0.3827235 
H    -4.5257511    2.6956327    1.8461585 
H    -6.0436081    2.1141633    1.0522362 
C    -2.8515923    2.2185906   -0.3612413 
N    -4.0630120    0.2982082    0.6261888 
H    -4.7125874    1.4778832   -1.0123737 
H    -3.5210232    0.4040342    1.5191157 
H    -5.0039167   -0.0901789    0.8703526 
O    -1.8797152    2.3722244    0.6225837 
O    -2.6036137    2.6908728   -1.6433311 
H    -1.6614339    3.0588574   -1.6764707 
