13
UFF-Energy = 0.0620065
C    -5.1184214    2.3269125    0.8840926 
C    -4.2216120    1.5919839   -0.1150826 
H    -5.4147890    3.3210724    0.4842375 
H    -4.5850391    2.4762801    1.8487590 
H    -6.0361985    1.7310243    1.0771352 
C    -2.9496296    2.3791298   -0.4093705 
N    -3.9472208    0.2491010    0.4181444 
H    -4.7752887    1.4983562   -1.0790600 
H    -3.4229934   -0.3074552   -0.2980292 
H    -3.3148654    0.3239050    1.2534367 
O    -2.0004366    2.5756342    0.5853693 
O    -2.7334499    2.9147953   -1.6710823 
H    -2.3744557    2.1928977   -2.2784657 
