13
UFF-Energy = 0.0778522
C    -5.3263703    2.2384682   -0.1651198 
C    -4.0496430    1.3764972   -0.1059563 
H    -5.3127819    2.8965409   -1.0626629 
H    -5.4008434    2.8862056    0.7358870 
H    -6.2284294    1.5921866   -0.2257293 
C    -2.7747741    2.2289074   -0.1016553 
N    -4.1362337    0.4273030    1.0291524 
H    -3.9902387    0.7836448   -1.0472753 
H    -3.3259329    0.5320281    1.6875118 
H    -4.9923654    0.5738864    1.6147220 
O    -2.7488014    3.4550308   -0.7544182 
O    -1.5916741    1.7357415    0.4344220 
H    -1.1537918    1.1308737   -0.2448408 
