13
Energy =
C    -5.2620154    1.9840473   -0.1416834 
C    -3.8346073    1.4429875   -0.0684393 
H    -5.3283136    2.8265171   -0.8627278 
H    -5.5705262    2.3471801    0.8644418 
H    -5.9604126    1.1795277   -0.4537755 
C    -2.8450502    2.5366546    0.3200064 
N    -3.8437591    0.3077312    0.8740248 
H    -3.5252236    1.1048470   -1.0872535 
H    -3.6851520   -0.5844382    0.3496064 
H    -3.0628447    0.3850540    1.5708024 
O    -1.6433400    2.6592145   -0.3656335 
O    -3.1126814    3.3984352    1.3762039 
H    -2.3306239    4.0318590    1.4820476 
