24
Energy =
C     0.0701412    2.2966299   -0.2634114 
C    -0.9870511    1.8371907    0.4581155 
C    -1.0645922    0.5229181    0.7671201 
C     1.0444526    1.4423732   -0.6668323 
C     0.9710638    0.1204475   -0.3498640 
C    -0.0949002   -0.3361698    0.3635971 
O    -2.0063363    2.6901471    0.8932726 
H    -1.8903698    3.6575525    0.6121693 
H    -0.1778999   -1.3908970    0.6122144 
H     1.8786156    1.8224590   -1.2535125 
H     0.1351879    3.3472965   -0.5222193 
H    -1.9154129    0.1653937    1.3378960 
C     2.0416792   -0.8389642   -0.8230429 
C     1.6725434   -1.4945365   -2.1671267 
H     2.1997108   -1.6342396   -0.0610851 
H     3.0184947   -0.3123338   -0.9215983 
C     1.5910564   -0.4797356   -3.2982271 
O     2.6439807    0.3943460   -3.5466128 
O     0.4706238   -0.4436160   -4.1153478 
H     0.5993094    0.2796160   -4.8114183 
N     2.6486147   -2.5617424   -2.4479077 
H     0.6558831   -1.9456498   -2.0826384 
H     2.3692116   -3.0523874   -3.3321325 
H     3.5834114   -2.1275702   -2.6442743 
