24
Energy =
C    -0.2758453    2.0944195   -1.8798131 
C    -0.6911333    2.5334745   -0.6691966 
C    -0.2099848    1.9632301    0.4592842 
C     0.6305171    1.0876255   -1.9662682 
C     1.1279883    0.5161579   -0.8341870 
C     0.6969879    0.9563584    0.3811729 
O    -1.6222938    3.5636191   -0.5845243 
H    -1.1582676    4.4650386   -0.5619370 
H     1.0673661    0.4995943    1.2961653 
H     0.9517161    0.7412555   -2.9456308 
H    -0.6806994    2.5516556   -2.7761965 
H    -0.5622123    2.3146648    1.4234679 
C     2.1217152   -0.6203201   -0.9297839 
C     1.4328443   -1.9793446   -1.1683750 
H     2.7356980   -0.6903031   -0.0028344 
H     2.8387368   -0.4103285   -1.7551036 
C     2.4541893   -3.0563695   -1.5077785 
O     2.0464772   -4.2049347   -2.1757873 
O     3.7902581   -2.9224178   -1.1438789 
H     4.2907745   -3.7538768   -1.4313305 
N     0.6470264   -2.3423784    0.0250191 
H     0.7644054   -1.9050019   -2.0579288 
H    -0.2217059   -1.7585431    0.0490959 
H     0.3119761   -3.3321221   -0.0727115 
