24
Energy =
C    -0.3699801    1.5625653    0.9126712 
C     0.1468924    2.6522130    0.2992772 
C     1.1435664    2.5110751   -0.6044725 
C     0.1036383    0.3249121    0.6185708 
C     1.1066146    0.1751226   -0.2912176 
C     1.6226112    1.2768442   -0.9040341 
O    -0.3416390    3.9190956    0.6030356 
H    -1.1239729    4.1554803    0.0028307 
H     2.4227654    1.1776916   -1.6340119 
H    -0.3242799   -0.5407269    1.1174522 
H    -1.1615986    1.6920761    1.6425960 
H     1.5556823    3.3936389   -1.0824673 
C     1.6309841   -1.2007108   -0.6362675 
C     1.0616809   -1.7233725   -1.9768673 
H     1.4081304   -1.9272702    0.1778940 
H     2.7432352   -1.1533750   -0.6979859 
C     1.7738984   -2.9957806   -2.3987282 
O     2.8645983   -2.9257800   -3.2538055 
O     1.4058067   -4.2263836   -1.8722216 
H     0.6318121   -4.5798323   -2.4150775 
N    -0.3949206   -1.9312506   -1.8867026 
H     1.2747109   -0.9838018   -2.7834571 
H    -0.6249131   -2.5002050   -1.0371460 
H    -0.8745109   -1.0060157   -1.7848298 
