24
Energy =
C    -0.1443895    2.4986187   -0.6587773 
C     0.8041961    2.9375648   -1.5173697 
C     1.8704633    2.1434281   -1.8041413 
C    -0.0374873    1.2747032   -0.0822070 
C     1.0335334    0.4811970   -0.3578763 
C     1.9827211    0.9188077   -1.2298214 
O     0.6573453    4.2041423   -2.0919054 
H     1.4084053    4.4610029   -2.7233919 
H     2.8357899    0.2893220   -1.4734270 
H    -0.8138626    0.9374316    0.5994396 
H    -0.9919930    3.1395460   -0.4414753 
H     2.6337556    2.4844504   -2.4954229 
C     1.1475646   -0.8966196    0.2554650 
C     0.5390240   -1.9928484   -0.6792748 
H     0.6238953   -0.9065455    1.2398397 
H     2.1954812   -1.0562971    0.5499601 
C     1.4518681   -3.1479574   -1.1531402 
O     0.8747594   -4.1189434   -1.9642847 
O     2.8286297   -3.2562889   -0.9279350 
H     3.2203922   -2.5867159   -0.2980633 
N    -0.6802345   -2.5123803   -0.0283182 
H     0.2391913   -1.5204233   -1.6459163 
H    -1.3910075   -1.7449653    0.0339006 
H    -1.1217451   -3.2501137   -0.6299282 
