24
Energy =
C     0.9902994    1.8448390    0.8763411 
C     1.1632072    2.8108963   -0.0553961 
C     1.4749750    2.4758483   -1.3283547 
C     1.1225579    0.5373317    0.5362317 
C     1.4389481    0.1923651   -0.7429953 
C     1.6092328    1.1711100   -1.6759301 
O     1.0260642    4.1497252    0.2970643 
H     0.0615585    4.4479748    0.1970406 
H     1.8437931    0.9143376   -2.7065677 
H     0.9715632   -0.2288604    1.2923324 
H     0.7451424    2.1289816    1.8939921 
H     1.6116505    3.2590382   -2.0664585 
C     1.5538961   -1.2656928   -1.1334806 
C     0.1786032   -1.8772399   -1.4928434 
H     2.0046367   -1.8367071   -0.2914403 
H     2.2457352   -1.3814440   -1.9990862 
C    -0.4610577   -1.1516648   -2.6711442 
O    -1.5341612   -0.2930459   -2.4642213 
O     0.0486723   -1.3052729   -3.9551270 
H    -0.5047355   -0.7479848   -4.5935715 
N     0.3005051   -3.3407023   -1.7129759 
H    -0.5185086   -1.7160907   -0.6382720 
H     0.0042509   -3.5982829   -2.6874425 
H     1.2903203   -3.6730812   -1.6368807 
