24
Energy =
C     0.2441034    1.6172252    1.2409628 
C    -0.3045613    2.5229602    0.3988079 
C    -0.1266588    2.4003318   -0.9365997 
C     0.9809253    0.5881927    0.7502640 
C     1.1724647    0.4634633   -0.5927462 
C     0.6094067    1.3742854   -1.4347980 
O    -1.0612957    3.5746535    0.9052589 
H    -0.4712804    4.3721897    1.1158194 
H     0.7427696    1.2850554   -2.5103013 
H     1.4118590   -0.1343328    1.4380728 
H     0.0820081    1.7212982    2.3082856 
H    -0.5821273    3.1265371   -1.6018880 
C     1.9740231   -0.6919017   -1.1499569 
C     1.0628568   -1.8199816   -1.6929290 
H     2.6678862   -1.0968349   -0.3793062 
H     2.6254842   -0.3105341   -1.9704248 
C     1.8673443   -2.8625010   -2.4666244 
O     1.8109040   -2.8617177   -3.8553526 
O     2.7194225   -3.7672712   -1.8321253 
H     2.6637150   -3.6871370   -0.8295087 
N     0.2720638   -2.4288630   -0.6053603 
H     0.3641435   -1.3891475   -2.4490579 
H     0.8595705   -2.5797678    0.2478895 
H    -0.4978792   -1.7738823   -0.3284321 
