24
Energy =
C    -0.6661203    0.5565307    1.1138933 
C    -1.1358436    1.7154062    0.5792229 
C    -0.5128470    2.2582045   -0.4913893 
C     0.4228045   -0.0502788    0.5773022 
C     1.0556423    0.4993069   -0.4960370 
C     0.5773520    1.6570363   -1.0302024 
O    -2.2538393    2.3668695    1.1099248 
H    -2.6716027    1.8926353    1.9030736 
H     1.0591423    2.1065799   -1.8953834 
H     0.7843087   -0.9783047    1.0126168 
H    -1.1612720    0.1119507    1.9705276 
H    -0.9000804    3.1786684   -0.9146586 
C     2.2586414   -0.1906832   -1.1052189 
C     1.8455758   -1.3281563   -2.0737545 
H     2.8863316   -0.6052839   -0.2857346 
H     2.8984725    0.5433888   -1.6477323 
C     1.0732545   -0.8123424   -3.2805522 
O     1.3849688    0.4090787   -3.8671533 
O     0.0874200   -1.5993926   -3.8589466 
H     0.5405039   -2.3040199   -4.4218016 
N     3.0306615   -2.0939046   -2.5161201 
H     1.1394671   -2.0042436   -1.5361062 
H     3.9027235   -1.8207034   -2.0040706 
H     2.8823153   -3.1144445   -2.3336060 
