24
Energy =
C     1.3173225    1.7979082    0.7668542 
C     0.4743769    2.6593132    0.1523109 
C    -0.0323614    2.3578608   -1.0646274 
C     1.6706677    0.6372960    0.1576757 
C     1.1772550    0.3322598   -1.0758014 
C     0.3147118    1.1976096   -1.6788227 
O     0.1200333    3.8516659    0.7750876 
H     0.7649625    4.5927206    0.5251431 
H    -0.1136398    0.9526239   -2.6468440 
H     2.3380284   -0.0509851    0.6714078 
H     1.6980810    2.0417453    1.7527871 
H    -0.7262915    3.0468683   -1.5346189 
C     1.5631731   -0.9683143   -1.7567640 
C     0.4461174   -2.0306583   -1.6885953 
H     2.4837947   -1.3861783   -1.2895101 
H     1.8203113   -0.7681555   -2.8190945 
C     0.0468845   -2.3337654   -0.2461912 
O    -1.2851170   -2.4980060    0.1186546 
O     1.0324745   -2.5519333    0.7089663 
H     0.5805093   -2.7664375    1.5889948 
N    -0.6803959   -1.5958964   -2.5399747 
H     0.8527477   -2.9945542   -2.0722651 
H    -0.4466741   -1.7944060   -3.5408177 
H    -1.5284518   -2.1766715   -2.3251020 
