24
Energy =
C    -0.2551940    2.1197846   -0.6554462 
C     0.5044832    2.7788142    0.2502750 
C     1.7180024    2.2881394    0.6028916 
C     0.2094191    0.9743075   -1.2099874 
C     1.4158282    0.4650672   -0.8603834 
C     2.1792172    1.1364684    0.0454799 
O     0.0372883    3.9562600    0.8250890 
H     0.3121840    4.7597542    0.2706653 
H     3.1586910    0.7610484    0.3299880 
H    -0.3680511    0.3141945   -1.9982460 
H    -1.2295027    2.5105469   -0.9273648 
H     2.3146048    2.8244893    1.3334430 
C     1.9201304   -0.8019306   -1.5412020 
C     0.8185034   -1.8907602   -1.7484293 
H     2.7451690   -1.2332631   -0.9330876 
H     2.3562645   -0.5275465   -2.5274545 
C    -0.2317296   -1.5018288   -2.8101289 
O    -0.9189906   -0.2901649   -2.7341202 
O    -0.5375157   -2.3560541   -3.8559128 
H    -1.2685006   -1.9370183   -4.4155870 
N     1.4547071   -3.1842346   -2.0602104 
H     0.2342645   -2.0066606   -0.8060326 
H     1.8755560   -3.1508841   -3.0208345 
H     2.2063454   -3.4174876   -1.3711977 
