24
Energy =
C     0.5364804    1.5879260    1.1860629 
C     0.4267798    2.6988624    0.4214687 
C     0.7538887    2.6524408   -0.8901767 
C     0.9860940    0.4274501    0.6435236 
C     1.3329359    0.3775577   -0.6727390 
C     1.2056288    1.4963405   -1.4397031 
O    -0.0312977    3.8871809    0.9822292 
H     0.7387987    4.4192721    1.3715373 
H     1.4533110    1.4700975   -2.4991225 
H     1.0614781   -0.4590776    1.2675637 
H     0.2531859    1.6364558    2.2316341 
H     0.6434825    3.5447523   -1.4973196 
C     1.8120763   -0.9195185   -1.2867440 
C     0.6316018   -1.7947071   -1.7690289 
H     2.4166975   -1.4778944   -0.5388853 
H     2.4960293   -0.7105274   -2.1414070 
C    -0.1519590   -1.1245809   -2.8840545 
O     0.4816416   -0.7426284   -4.0633570 
O    -1.5053953   -0.8602549   -2.7216942 
H    -1.8528369   -0.4182217   -3.5624826 
N     1.1328693   -3.1161112   -2.1892884 
H    -0.1037971   -1.9288972   -0.9405336 
H     1.7924440   -3.0049623   -2.9984575 
H     1.6576214   -3.5740256   -1.4077731 
