24
Energy =
C    -1.5541976    0.8394205   -1.3764929 
C    -1.2026631    2.1427615   -1.5324500 
C    -0.0716148    2.6031419   -0.9529830 
C    -0.7742877    0.0053105   -0.6433084 
C     0.3723804    0.4628743   -0.0663373 
C     0.7146699    1.7729510   -0.2217900 
O    -1.9851073    3.0300621   -2.2783615 
H    -2.8037850    2.6045994   -2.7000090 
H     1.6179917    2.1678280    0.2356137 
H    -1.0729957   -1.0333394   -0.5319573 
H    -2.4586384    0.4599539   -1.8395590 
H     0.1952893    3.6463069   -1.0839835 
C     1.2500650   -0.4661415    0.7554046 
C     2.1177239   -1.4381231   -0.0913613 
H     0.6063764   -1.0496265    1.4506441 
H     1.9274191    0.1265265    1.4104797 
C     1.2837107   -2.4860564   -0.8198673 
O     0.7656990   -2.2380032   -2.0840400 
O     0.9604018   -3.6776470   -0.1858149 
H     0.2155831   -3.5161820    0.4745932 
N     3.0696260   -0.7129024   -0.9689466 
H     2.7250609   -2.0449406    0.6198048 
H     2.9360233   -0.9839032   -1.9746690 
H     2.9297566    0.3218577   -0.9433368 
