24
Energy =
C     0.0811687    1.3589349    1.2201111 
C     0.0707500    2.5133427    0.5140453 
C     0.6250678    2.5572819   -0.7192641 
C     0.6555620    0.2450407    0.6986145 
C     1.2297407    0.2859845   -0.5357560 
C     1.2044822    1.4488097   -1.2460607 
O    -0.5208658    3.6522306    1.0518244 
H     0.1496339    4.1812200    1.5985332 
H     1.6346293    1.4956804   -2.2447229 
H     0.6491853   -0.6776968    1.2736226 
H    -0.3812204    1.3345951    2.2009454 
H     0.5932940    3.4831174   -1.2841655 
C     1.8459592   -0.9619331   -1.1300242 
C     0.8165123   -1.8063967   -1.8972670 
H     2.2942841   -1.5808435   -0.3210878 
H     2.6892796   -0.7011130   -1.8102175 
C     0.2837743   -1.0458583   -3.1213871 
O     1.0747068   -0.9313893   -4.2588324 
O    -0.9521295   -0.3981513   -3.1023213 
H    -1.4080262   -0.4698617   -2.2049543 
N     1.4696976   -3.0846889   -2.2473120 
H    -0.0475621   -2.0119577   -1.2234080 
H     1.0207703   -3.8693110   -1.7185356 
H     1.3610783   -3.3121475   -3.2664475 
