24
Energy =
C     0.9246513    2.5356056   -0.0934176 
C    -0.3766358    2.4897695    0.2729499 
C    -0.9908898    1.2856957    0.4208736 
C     1.6197405    1.3899847   -0.3102286 
C     1.0123183    0.1817515   -0.1518554 
C    -0.3005025    0.1371045    0.2060797 
O    -1.0585419    3.6918913    0.4877972 
H    -2.0304409    3.5730891    0.7519912 
H    -0.8071521   -0.8193618    0.3100962 
H     2.6620560    1.4504509   -0.6138135 
H     1.4011561    3.5024947   -0.2146633 
H    -2.0365293    1.2385520    0.7054162 
C     1.7774179   -1.0972418   -0.4128715 
C     1.5878848   -1.5813375   -1.8622274 
H     1.4504385   -1.8938434    0.2920985 
H     2.8600771   -0.9339004   -0.2077878 
C     2.6074966   -2.6542258   -2.2062954 
O     2.4980411   -3.9329030   -1.6728389 
O     3.6989546   -2.3425356   -3.0026172 
H     4.2657431   -3.1742142   -3.1134610 
N     0.1984967   -2.0443972   -2.0431883 
H     1.7924225   -0.7332430   -2.5587107 
H     0.0383089   -2.2348926   -3.0613035 
H     0.0713932   -2.9655833   -1.5562368 
