24
Energy =
C     1.0228377    1.7421719    1.0129945 
C     1.0241847    2.7812450    0.1354721 
C     1.1599017    2.5381932   -1.1879099 
C     1.1615812    0.4690034    0.5636227 
C     1.3119563    0.2241956   -0.7674811 
C     1.3027401    1.2680843   -1.6424395 
O     0.8884617    4.1047408    0.5668787 
H     0.7690373    4.2030088    1.5691271 
H     1.3941017    1.0920249   -2.7123461 
H     1.1490367   -0.3510805    1.2768332 
H     0.9074362    1.9272199    2.0755743 
H     1.1454815    3.3731256   -1.8799261 
C     1.4433957   -1.1972517   -1.2730772 
C     0.0662188   -1.8158331   -1.6062974 
H     1.9591303   -1.8162025   -0.5063702 
H     2.0925822   -1.2185229   -2.1784540 
C    -0.5944811   -1.1001398   -2.7743351 
O    -1.5901395   -0.1626060   -2.5407348 
O    -0.1447879   -1.2973449   -4.0735833 
H    -0.5253688   -2.1695529   -4.4106071 
N     0.2193996   -3.2579700   -1.8736998 
H    -0.6251196   -1.6787034   -0.7409896 
H     0.9324043   -3.4060381   -2.6294309 
H     0.5685783   -3.7422197   -1.0135172 
