24
Energy =
C    -0.4775082    2.0678383   -1.6658122 
C    -0.7446015    2.4894725   -0.4007896 
C    -0.1065330    1.9148677    0.6440597 
C     0.4248589    1.0766064   -1.8782970 
C     1.0720507    0.5016591   -0.8272555 
C     0.7969141    0.9235599    0.4375643 
O    -1.6699650    3.5066981   -0.1468217 
H    -2.1024743    3.8898288   -0.9804657 
H     1.2933265    0.4671004    1.2907973 
H     0.6251993    0.7470445   -2.8950245 
H    -0.9861644    2.5210951   -2.5098953 
H    -0.3310156    2.2580477    1.6482076 
C     2.0632917   -0.6165163   -1.0630347 
C     1.3673899   -1.9835960   -1.2305396 
H     2.7902608   -0.6830457   -0.2215652 
H     2.6685586   -0.3832229   -1.9682343 
C     2.3337636   -3.0400808   -1.7494725 
O     3.7116827   -2.8543570   -1.6906561 
O     1.8329693   -4.2184601   -2.2863306 
H     2.6105896   -4.8046137   -2.5633432 
N     0.7725598   -2.3848313    0.0580548 
H     0.5740253   -1.9049687   -2.0106180 
H    -0.0956559   -1.8232864    0.2202837 
H     0.4507973   -3.3822567   -0.0101850 
