24
Energy =
C     0.1767759    2.5248965   -1.4433535 
C    -0.1546130    2.7265556   -0.1475637 
C     0.1517276    1.7933690    0.7823840 
C     0.8257844    1.3923986   -1.8131925 
C     1.1482236    0.4509032   -0.8811638 
C     0.8043184    0.6592636    0.4212254 
O    -0.8180925    3.8906443    0.2273214 
H    -0.1570332    4.6289839    0.4415846 
H     1.0358808   -0.0850247    1.1800622 
H     1.0801705    1.2446439   -2.8591457 
H    -0.0886062    3.2742268   -2.1806688 
H    -0.1367976    1.9573847    1.8155453 
C     1.8650088   -0.8209544   -1.2917751 
C     0.9096766   -2.0182726   -1.5254866 
H     2.6121662   -1.0889905   -0.5110380 
H     2.4555764   -0.6410084   -2.2174071 
C     0.2322094   -2.4740770   -0.2304920 
O    -1.0137192   -1.9686630    0.1233493 
O     0.8877694   -3.3168650    0.6690518 
H     1.7864892   -3.6209528    0.3266291 
N    -0.0607662   -1.7220544   -2.5955937 
H     1.5230196   -2.8828279   -1.8644426 
H    -0.7588350   -1.0108076   -2.2657819 
H     0.4250638   -1.3289399   -3.4348601 
