24
Energy =
C     0.6277806    2.5176882   -1.1773851 
C     0.3420488    2.7804120    0.1256801 
C     0.5288540    1.8186896    1.0577547 
C     1.0965109    1.2969324   -1.5401813 
C     1.2829243    0.3265993   -0.6028693 
C     0.9971497    0.5957906    0.7009768 
O    -0.1433045    4.0270973    0.5333656 
H    -0.2542561    4.6945222   -0.2222896 
H     1.1413943   -0.1613258    1.4675050 
H     1.3222576    1.1028536   -2.5860683 
H     0.4824712    3.2832069   -1.9319776 
H     0.2986305    2.0423834    2.0937961 
C     1.7990482   -1.0361616   -1.0128495 
C     0.7226329   -1.8713671   -1.7518645 
H     2.1696042   -1.6105682   -0.1326697 
H     2.6852535   -0.8928718   -1.6726286 
C     1.3475916   -3.0861656   -2.4117564 
O     2.0889793   -3.9989438   -1.6672937 
O     1.2263683   -3.2670854   -3.7845444 
H     1.6873630   -4.1307048   -4.0409004 
N    -0.3664707   -2.2811573   -0.8386540 
H     0.3097708   -1.2686640   -2.5956000 
H    -0.2678707   -1.8739812    0.1195444 
H    -1.2848426   -1.9464159   -1.2143158 
