24
Energy =
C     0.5534299    2.0393439    0.7842916 
C    -0.2247067    2.6673924   -0.1264520 
C    -0.2849980    2.1937117   -1.3994613 
C     1.2731948    0.9431348    0.4349328 
C     1.2206402    0.4681319   -0.8396572 
C     0.4322675    1.0973315   -1.7544535 
O    -0.9524883    3.7931778    0.2718467 
H    -1.5091301    4.2117248   -0.4651746 
H     0.3715892    0.7267579   -2.7749539 
H     1.8858089    0.4459437    1.1836439 
H     0.5907664    2.4242040    1.7979450 
H    -0.9085442    2.6905288   -2.1343765 
C     2.0054968   -0.7648381   -1.2300692 
C     1.1431718   -2.0434128   -1.1747234 
H     2.8876642   -0.8978404   -0.5626019 
H     2.4196905   -0.6261141   -2.2543262 
C     1.8363775   -3.2103530   -1.8640361 
O     3.2109149   -3.2113615   -2.0808173 
O     1.0857179   -4.3025379   -2.2773252 
H     1.7077932   -4.9842322   -2.6935713 
N     0.8330708   -2.3563055    0.2328692 
H     0.2002998   -1.8848175   -1.7491834 
H     0.1027667   -1.6898404    0.5764149 
H     0.3906652   -3.3075396    0.2835556 
