24
Energy =
C    -0.4269794    1.6763587    0.6733933 
C    -0.1129036    2.6990772   -0.1546856 
C     0.8346266    2.5333215   -1.1060380 
C     0.2031972    0.4803662    0.5493100 
C     1.1605991    0.3067222   -0.4038433 
C     1.4683279    1.3398568   -1.2370514 
O    -0.7611521    3.9232490   -0.0249095 
H    -1.6021894    3.9448545   -0.5907576 
H     2.2242196    1.2199789   -2.0094643 
H    -0.0663297   -0.3397369    1.2109057 
H    -1.1852685    1.8256042    1.4343634 
H     1.0819107    3.3638271   -1.7588895 
C     1.8508782   -1.0311585   -0.5588117 
C     1.0791777   -1.9616356   -1.5150954 
H     1.9562689   -1.5299329    0.4305385 
H     2.8883441   -0.8685935   -0.9300503 
C     1.8932932   -3.2067123   -1.8754154 
O     3.2735328   -3.2248337   -1.7264636 
O     1.2722972   -4.3034543   -2.4589577 
H     1.0885050   -4.1001279   -3.4303001 
N    -0.2229528   -2.2866901   -0.8894468 
H     0.9238196   -1.4258637   -2.4806366 
H    -0.9967534   -1.9040529   -1.4814147 
H    -0.3782958   -3.3251239   -0.8393922 
