24
Energy =
C     1.5268750    2.4181985   -1.3936644 
C     0.2762237    2.9405500   -1.2842026 
C    -0.7001026    2.2180498   -0.6902846 
C     1.7947598    1.1818932   -0.9028167 
C     0.8152285    0.4583881   -0.2940144 
C    -0.4385903    0.9807577   -0.1983879 
O    -0.0329670    4.2146881   -1.7715681 
H     0.7414355    4.6753617   -2.2377376 
H    -1.2406452    0.4107735    0.2616896 
H     2.7938006    0.7660704   -1.0179790 
H     2.3137648    2.9836990   -1.8809513 
H    -1.6952456    2.6425677   -0.6220210 
C     1.1134107   -0.9348718    0.2248024 
C     1.0679016   -2.0574512   -0.8542930 
H     0.4123855   -1.1897772    1.0494479 
H     2.1179873   -0.9141158    0.7064070 
C     0.6538167   -1.5724556   -2.2543295 
O     1.6221467   -1.2464475   -3.1976386 
O    -0.6920258   -1.4201197   -2.5957282 
H    -1.3084479   -1.6557592   -1.8328974 
N     2.3726102   -2.7457994   -0.8641266 
H     0.2878564   -2.7952680   -0.5552891 
H     2.4431980   -3.3683012   -0.0249663 
H     2.4414117   -3.3737922   -1.7022889 
