24
Energy =
C    -0.0637511    2.5120818   -1.5041429 
C    -0.7730033    2.5668784   -0.3546442 
C    -0.5445111    1.6475978    0.6202137 
C     0.8701275    1.5465938   -1.6901897 
C     1.1032361    0.6197785   -0.7185528 
C     0.3899038    0.6797573    0.4405392 
O    -1.7279537    3.5767727   -0.2013774 
H    -2.2250533    3.5487079    0.6823643 
H     0.5618227   -0.0437539    1.2335310 
H     1.4254225    1.5193864   -2.6238903 
H    -0.2537565    3.2503233   -2.2754066 
H    -1.1089243    1.6843693    1.5455858 
C     2.1400436   -0.4678348   -0.9305814 
C     1.5518897   -1.7914532   -1.4887804 
H     2.6654098   -0.6697284    0.0310222 
H     2.9301381   -0.1033442   -1.6237449 
C     0.6260661   -2.5029764   -0.4917847 
O     0.9717031   -2.5273153    0.8545311 
O    -0.5025546   -3.2163580   -0.8924985 
H    -0.5883683   -3.2234200   -1.8974471 
N     0.9321698   -1.5678038   -2.8116312 
H     2.3991603   -2.5032258   -1.6191334 
H     0.1195700   -0.9100664   -2.7296977 
H     1.6261274   -1.1256719   -3.4612396 
