24
Energy =
C    -0.6242102    2.3234271   -0.6334613 
C    -0.7110840    2.0729399    0.6999281 
C     0.1117338    1.1592007    1.2632761 
C     0.2811117    1.6595385   -1.3942775 
C     1.1090729    0.7368499   -0.8292506 
C     1.0212873    0.4941601    0.5072945 
O    -1.6351157    2.7391049    1.5123222 
H    -2.2147913    3.4094608    1.0190939 
H     1.6731042   -0.2376105    0.9802560 
H     0.3371474    1.8718171   -2.4586763 
H    -1.2779094    3.0551705   -1.0946256 
H     0.0317704    0.9663766    2.3276982 
C     2.1192519   -0.0119687   -1.6752305 
C     1.6406776   -1.4158409   -2.1290652 
H     3.0663474   -0.1205468   -1.0974058 
H     2.3919857    0.5913777   -2.5702690 
C     1.3330233   -2.3612596   -0.9630427 
O     2.3635491   -3.1350379   -0.4426651 
O     0.0817529   -2.4270764   -0.3490513 
H    -0.5746806   -1.8048149   -0.7903546 
N     0.5370467   -1.3125752   -3.1026849 
H     2.5013602   -1.9051720   -2.6434432 
H    -0.2150999   -0.6751207   -2.7547553 
H     0.8990911   -0.8850401   -3.9878788 
