24
Energy =
C    -0.1413794    1.4497801    1.0963086 
C    -0.1925863    2.5411566    0.2988802 
C     0.4170159    2.5262834   -0.9083103 
C     0.5325078    0.3416997    0.6941037 
C     1.1592016    0.3215853   -0.5163241 
C     1.0912347    1.4217394   -1.3179246 
O    -0.8795750    3.6763623    0.7170576 
H    -0.2690851    4.2913408    1.2431691 
H     1.5657445    1.4187847   -2.2956032 
H     0.5575575   -0.5318333    1.3417472 
H    -0.6522313    1.4702430    2.0530067 
H     0.3535793    3.4011178   -1.5467184 
C     1.9036190   -0.9173449   -0.9790154 
C     1.0235892   -1.8622747   -1.8263521 
H     2.3062924   -1.4724246   -0.1020480 
H     2.7898176   -0.6153241   -1.5784601 
C    -0.1311275   -2.4564455   -1.0208078 
O     0.0390958   -2.7726309    0.3241661 
O    -1.3226074   -2.8109674   -1.6425914 
H    -1.9427623   -3.2149404   -0.9525595 
N     0.5763292   -1.1455857   -3.0363856 
H     1.6442021   -2.7375007   -2.1253038 
H     1.3690581   -1.0998967   -3.7171118 
H    -0.1848831   -1.6938642   -3.5083617 
