24
Energy =
C    -0.2095407    0.9966153    1.2288667 
C    -0.2377443    2.2696604    0.7518469 
C     0.4559427    2.5796319   -0.3667380 
C     0.5110117    0.0431841    0.5858401 
C     1.2116575    0.3537463   -0.5403266 
C     1.1800214    1.6309945   -1.0119730 
O    -0.9685407    3.2759629    1.3914331 
H    -1.4690663    2.9638332    2.2165294 
H     1.7275080    1.9019459   -1.9113188 
H     0.5240103   -0.9706248    0.9782768 
H    -0.7632471    0.7383231    2.1251989 
H     0.4221836    3.5970969   -0.7408518 
C     2.0081318   -0.7180762   -1.2570234 
C     1.1020676   -1.6758825   -2.0729644 
H     2.5775791   -1.2947394   -0.4951106 
H     2.7743410   -0.2654781   -1.9270147 
C     0.5400165   -1.0507889   -3.3570711 
O     0.8305834    0.2648216   -3.6998549 
O    -0.2857469   -1.7870936   -4.2027636 
H    -0.2973916   -2.7563820   -3.9191564 
N     1.8421817   -2.9171554   -2.3667698 
H     0.2050517   -1.9373157   -1.4652115 
H     2.7350155   -2.6926221   -2.8715601 
H     2.1023052   -3.4026596   -1.4746496 
