24
Energy =
C    -0.5607431    1.4300797    0.8815276 
C    -0.2612722    2.6210748    0.2996668 
C     0.7218484    2.6833795   -0.6259540 
C     0.1235331    0.3104889    0.5355749 
C     1.1081704    0.3670512   -0.4048477 
C     1.4072317    1.5663649   -0.9788781 
O    -0.9430627    3.7949351    0.6368322 
H    -1.6847945    3.6609340    1.3156244 
H     2.1945445    1.6431347   -1.7236694 
H    -0.1313776   -0.6314770    1.0123848 
H    -1.3494011    1.3692841    1.6235030 
H     0.9514133    3.6407125   -1.0810940 
C     1.8784646   -0.8830293   -0.7955045 
C     1.1095468   -1.8359536   -1.7543124 
H     2.1623613   -1.4347143    0.1283563 
H     2.8423197   -0.6027152   -1.2761627 
C    -0.1070904   -2.4761664   -1.1027074 
O    -1.3420058   -1.8399292   -1.0922348 
O     0.0324586   -3.6757714   -0.4144633 
H     0.4447543   -3.4966984    0.4882242 
N     0.7589485   -1.1767538   -3.0311146 
H     1.7817777   -2.7015976   -1.9640237 
H     1.0652059   -0.1787546   -3.0733004 
H     1.2155730   -1.6727667   -3.8318753 
