24
Energy =
C    -0.4814370    1.7437180    0.5297458 
C    -0.3282834    2.6818781   -0.4424593 
C     0.5655099    2.4749386   -1.4361457 
C     0.2609877    0.6081243    0.5044089 
C     1.1678660    0.4029823   -0.4901176 
C     1.3101288    1.3405005   -1.4670908 
O    -1.0765123    3.8635326   -0.4460861 
H    -1.7277414    3.9425163    0.3274878 
H     2.0174648    1.1904003   -2.2790268 
H     0.1184640   -0.1403866    1.2798184 
H    -1.2009919    1.8968424    1.3266139 
H     0.6737307    3.2292320   -2.2080266 
C     1.9797779   -0.8725810   -0.5333539 
C     1.2267875   -1.9967813   -1.2735424 
H     2.2316521   -1.2051514    0.4982375 
H     2.9580995   -0.6788846   -1.0304007 
C     2.1583687   -3.1438293   -1.6315912 
O     2.0846252   -3.7253941   -2.8880198 
O     3.0724097   -3.6366330   -0.7093052 
H     2.5880274   -4.2218703   -0.0455495 
N     0.0816737   -2.4388673   -0.4558477 
H     0.8568490   -1.6007807   -2.2500799 
H    -0.4876767   -3.1273346   -1.0059053 
H     0.4222747   -2.9397813    0.3985278 
