24
Energy =
C    -0.6325411    1.7649756   -2.0925417 
C    -1.3705147    1.9786183   -0.9787599 
C    -0.9655379    1.4731718    0.2088423 
C     0.5211952    1.0532489   -2.0203015 
C     0.9439423    0.5547003   -0.8247376 
C     0.1875011    0.7612854    0.2888553 
O    -2.5524588    2.7083984   -1.0567377 
H    -2.3722820    3.6977892   -0.9266073 
H     0.4968776    0.3479958    1.2453131 
H     1.1003570    0.8819945   -2.9240829 
H    -0.9787411    2.1617218   -3.0406806 
H    -1.5755398    1.6355290    1.0911347 
C     2.2168706   -0.2594789   -0.7439311 
C     1.9340762   -1.7639202   -0.9454341 
H     2.7114891   -0.0862096    0.2372205 
H     2.9348620    0.0994498   -1.5172315 
C     3.2049766   -2.5524825   -1.2568784 
O     3.2687148   -3.2886709   -2.4322065 
O     4.3014830   -2.5684655   -0.3948073 
H     4.1552579   -1.9882130    0.4161373 
N     1.2138328   -2.2913712    0.2290014 
H     1.2894558   -1.8816449   -1.8501159 
H     0.9293934   -3.2839517    0.0441512 
H     1.8451186   -2.3112173    1.0643277 
