24
Energy =
C     0.0219539    1.5264395    1.1249754 
C    -0.2019807    2.5986746    0.3189558 
C     0.2997833    2.6072909   -0.9367248 
C     0.7478741    0.4725059    0.6727110 
C     1.2627846    0.4847966   -0.5876681 
C     1.0280674    1.5575373   -1.3933118 
O    -0.9429280    3.7014170    0.7550265 
H    -1.2963478    3.6140485    1.7016006 
H     1.4132284    1.5782821   -2.4107264 
H     0.9132109   -0.3803036    1.3263106 
H    -0.3810376    1.5087043    2.1319632 
H     0.1062859    3.4637473   -1.5736312 
C     2.0532775   -0.7010493   -1.0986631 
C     1.1386635   -1.7850219   -1.7067518 
H     2.6454375   -1.1362049   -0.2637495 
H     2.7974944   -0.3768732   -1.8621271 
C     0.3941344   -1.2738172   -2.9350597 
O    -0.9497295   -1.5758442   -3.1061505 
O     1.0559567   -0.5565560   -3.9245526 
H     1.4862539   -1.2205731   -4.5521134 
N     1.9609487   -2.9638732   -2.0318814 
H     0.3570583   -2.0661044   -0.9616149 
H     2.3521077   -3.3668976   -1.1473998 
H     1.3437067   -3.7114663   -2.4324536 
