24
Energy =
C     0.6798524    0.7125234    1.7339550 
C     0.5505193    2.0006433    1.3432320 
C     0.7765225    2.3349396    0.0448773 
C     1.0351017   -0.2452016    0.8401637 
C     1.2684855    0.0853474   -0.4600166 
C     1.1318897    1.3815921   -0.8536547 
O     0.1831256    2.9576877    2.2943186 
H     0.1029775    3.8995650    1.9271799 
H     1.3041841    1.6620883   -1.8906244 
H     1.1233575   -1.2772820    1.1707154 
H     0.4917738    0.4582837    2.7718154 
H     0.6710504    3.3651117   -0.2765625 
C     1.6499665   -0.9777080   -1.4675810 
C     0.4425162   -1.4402805   -2.3105163 
H     2.1020348   -1.8585986   -0.9601745 
H     2.4439715   -0.5659935   -2.1330625 
C     0.9320206   -2.2282238   -3.5238983 
O     1.6350490   -1.5655874   -4.5151716 
O     0.7559369   -3.5988706   -3.6494040 
H     0.1252694   -3.8805680   -2.9142967 
N    -0.4756282   -2.2233008   -1.4637140 
H    -0.0920469   -0.5526094   -2.7245733 
H    -0.9006889   -1.5856789   -0.7432790 
H    -1.2815197   -2.5235192   -2.0574002 
