24
Energy =
C     0.8096487    2.6819476   -1.3169194 
C     0.7257481    2.9143182    0.0130156 
C     1.0050673    1.9248621    0.8921550 
C     1.1690020    1.4549108   -1.7736210 
C     1.4512229    0.4531200   -0.8943938 
C     1.3622530    0.6946725    0.4431569 
O     0.3580730    4.1732751    0.4770095 
H    -0.6500831    4.2411276    0.5671588 
H     1.5760423   -0.0935968    1.1606489 
H     1.2203459    1.2766150   -2.8462072 
H     0.5848319    3.4871787   -2.0080283 
H     0.9397755    2.1259787    1.9563426 
C     1.8220974   -0.9268855   -1.3948240 
C     0.5882666   -1.8607267   -1.4746590 
H     2.5799781   -1.3681753   -0.7098397 
H     2.3084250   -0.8656705   -2.3960360 
C    -0.4493410   -1.3638224   -2.4841730 
O    -0.0369630   -0.7798502   -3.6786832 
O    -1.8183968   -1.4892659   -2.2435142 
H    -2.0077658   -2.0324179   -1.4150296 
N     1.0022933   -3.2395475   -1.8061565 
H     0.0949212   -1.8500172   -0.4748136 
H     2.0417341   -3.3532817   -1.8653208 
H     0.6630495   -3.9021966   -1.0697426 
