24
Energy =
C     0.0096592    2.2896841   -1.0173807 
C     0.6878666    2.9037459   -0.0109015 
C     1.6892023    2.2447777    0.6213773 
C     0.3437958    1.0262541   -1.3754904 
C     1.3337070    0.3552801   -0.7394153 
C     2.0187583    0.9763900    0.2584523 
O     0.3796289    4.2067380    0.3924469 
H    -0.3797414    4.6320215   -0.1287339 
H     2.8319327    0.4688066    0.7708635 
H    -0.1827924    0.3898807   -2.2198294 
H    -0.7947140    2.8006107   -1.5346683 
H     2.2250431    2.7484130    1.4187053 
C     1.7091057   -1.0446612   -1.2086192 
C     0.4920822   -1.9478644   -1.5555732 
H     2.2965978   -1.5555480   -0.4127642 
H     2.3742453   -0.9617320   -2.0959265 
C    -0.2716384   -1.5092238   -2.8261001 
O    -0.6829242   -0.1898823   -3.0112382 
O    -0.6084529   -2.4369662   -3.7971518 
H    -1.1316002   -1.9673927   -4.5256766 
N     0.9716265   -3.3384288   -1.6405321 
H    -0.2420582   -1.8777068   -0.7193926 
H     0.1377453   -3.9727861   -1.6722703 
H     1.4537440   -3.4801990   -2.5618775 
