24
Energy =
C     0.2932888    2.4973344   -1.5801386 
C    -0.1559804    2.7469346   -0.3289648 
C     0.0375063    1.8375911    0.6534796 
C     0.9476386    1.3403878   -1.8517438 
C     1.1561863    0.4222912   -0.8654981 
C     0.6939850    0.6789485    0.3906311 
O    -0.8242165    3.9360428   -0.0543508 
H    -0.1691228    4.6653126    0.2045384 
H     0.8342923   -0.0457516    1.1893280 
H     1.2983132    1.1545823   -2.8632039 
H     0.1183941    3.2282828   -2.3615843 
H    -0.3440631    2.0408306    1.6486805 
C     1.8789451   -0.8761961   -1.1666827 
C     0.9241525   -2.0578772   -1.4695072 
H     2.5313505   -1.1445287   -0.3043789 
H     2.5676060   -0.7360985   -2.0286715 
C     0.1354255   -2.4844887   -0.2429140 
O    -1.1078392   -1.9314541    0.0469807 
O     0.7043350   -3.3759958    0.6572653 
H     0.0433067   -3.5488229    1.4042864 
N     0.0589739   -1.7666395   -2.6292937 
H     1.5454631   -2.9506118   -1.7124430 
H    -0.6605985   -1.0485346   -2.3676443 
H     0.6236788   -1.3801272   -3.4207643 
