24
Energy =
C     0.0646003    2.4384212   -1.2305968 
C    -0.4793927    2.5534604    0.0017637 
C    -0.2249485    1.6029264    0.9396414 
C     0.8638155    1.3840428   -1.5335585 
C     1.1286502    0.4319643   -0.5971271 
C     0.5743047    0.5469778    0.6421501 
O    -1.2945983    3.6559526    0.2764213 
H    -1.6814730    3.6620148    1.2137538 
H     0.7588578   -0.2101357    1.4009717 
H     1.2797371    1.2962800   -2.5335604 
H    -0.1540123    3.1983554   -1.9732747 
H    -0.6636343    1.6830533    1.9279676 
C     2.0136815   -0.7528771   -0.9382229 
C     1.2696760   -1.8423358   -1.7393540 
H     2.4296040   -1.2026277   -0.0085583 
H     2.8898470   -0.4018588   -1.5252053 
C     0.0744252   -2.4092062   -0.9684472 
O     0.1607079   -2.6095582    0.4066916 
O    -1.0623149   -2.8506832   -1.6378551 
H    -1.7207851   -3.2129244   -0.9606524 
N     0.9134131   -1.2967173   -3.0654531 
H     1.9597434   -2.7071342   -1.8709884 
H     1.7575314   -1.3279400   -3.6831910 
H     0.1993351   -1.9186073   -3.5211116 
