24
Energy =
C    -0.1755812    1.7020462    0.8182440 
C     0.1836838    2.7518041    0.0321653 
C     1.0422648    2.5552714   -0.9942069 
C     0.3276716    0.4650626    0.5756467 
C     1.1998586    0.2682421   -0.4510126 
C     1.5480494    1.3202278   -1.2418860 
O    -0.3161458    4.0389156    0.2542318 
H    -0.9532282    4.1040994    1.0406839 
H     2.2306320    1.1819106   -2.0768895 
H     0.0208592   -0.3713271    1.2004064 
H    -0.8696375    1.8482933    1.6388758 
H     1.3161797    3.4004046   -1.6163770 
C     1.7431954   -1.1146494   -0.7365969 
C     0.8068675   -1.9073170   -1.6635830 
H     1.8767356   -1.6809555    0.2133002 
H     2.7555848   -1.0322069   -1.1934093 
C     1.5114927   -3.1499906   -2.1858584 
O     1.7969112   -4.2151606   -1.3389396 
O     1.9225892   -3.2052931   -3.5106316 
H     2.3764818   -4.0951709   -3.6757254 
N    -0.4383214   -2.2124071   -0.9236041 
H     0.5846995   -1.2935402   -2.5701510 
H    -1.2412137   -1.7131795   -1.3739245 
H    -0.6660889   -3.2365998   -0.9582722 
