24
Energy =
C     0.4211800    0.8113103    1.5336103 
C     0.5154629    2.1385373    1.2942668 
C     1.0060060    2.5799805    0.1140286 
C     0.8113901   -0.0812220    0.5883707 
C     1.2904247    0.3519681   -0.6115500 
C     1.3936415    1.6932190   -0.8379799 
O     0.1180125    3.0502132    2.2665549 
H    -0.8660498    3.2741782    2.1637506 
H     1.7860170    2.0669529   -1.7800902 
H     0.7234466   -1.1445840    0.7922834 
H     0.0301455    0.4726094    2.4869635 
H     1.0873933    3.6479284   -0.0603099 
C     1.7283350   -0.6412952   -1.6752379 
C     0.5633647   -1.3119362   -2.4572290 
H     2.3527657   -1.4309087   -1.1997649 
H     2.3975888   -0.1406823   -2.4096868 
C    -0.2335650   -2.2973323   -1.6107790 
O     0.0257546   -3.6597544   -1.7202670 
O    -1.1626473   -1.8653892   -0.6671048 
H    -1.6313474   -2.6695004   -0.2699394 
N    -0.3150961   -0.3240758   -3.1218887 
H     1.0392088   -1.9491510   -3.2393632 
H    -0.0379191    0.6633937   -2.9262097 
H    -0.2764349   -0.4518177   -4.1599881 
