24
Energy =
C    -0.4293231    2.2684391   -1.2785675 
C    -1.0921648    2.1876299   -0.0941909 
C    -0.6750022    1.3097658    0.8463483 
C     0.6490109    1.4759217   -1.5129570 
C     1.0728821    0.5972518   -0.5637933 
C     0.3989344    0.5127444    0.6154838 
O    -2.2029500    2.9913343    0.1808731 
H    -2.4710942    3.6133200   -0.5733400 
H     0.7126521   -0.1926969    1.3813692 
H     1.1678609    1.5325216   -2.4701486 
H    -0.7677260    2.9639774   -2.0385316 
H    -1.2139016    1.2483254    1.7865077 
C     2.2571104   -0.3059357   -0.8325067 
C     1.8393842   -1.6162810   -1.5267775 
H     2.7705844   -0.5515302    0.1239188 
H     3.0157308    0.2148500   -1.4599585 
C     1.3138128   -1.3904606   -2.9369598 
O     0.3250306   -2.2202195   -3.4464830 
O     1.8347464   -0.3833924   -3.7449113 
H     1.4370783   -0.4809995   -4.6728687 
N     2.9914797   -2.5333552   -1.5132470 
H     0.9982730   -2.0771739   -0.9567459 
H     2.6910500   -3.4567979   -1.9097102 
H     3.7255483   -2.1668967   -2.1671180 
