24
Energy =
C    -0.3449644    2.0312422   -0.5530680 
C    -0.0373636    2.3133768    0.7415542 
C     0.9167861    1.5896553    1.3761344 
C     0.3068947    1.0298190   -1.1920925 
C     1.2505524    0.2923563   -0.5611483 
C     1.5657499    0.5847528    0.7294128 
O    -0.6824434    3.3374628    1.4419454 
H    -1.3787949    3.8355296    0.8976959 
H     2.3370757    0.0239543    1.2507617 
H     0.1121968    0.6818762   -2.3029693 
H    -1.1058472    2.5984206   -1.0774456 
H     1.1565845    1.8295160    2.4064062 
C     1.9950558   -0.7857049   -1.3362795 
C     1.0918834   -1.6462297   -2.2677979 
H     2.5044187   -1.4722889   -0.6227061 
H     2.7945087   -0.3034031   -1.9412261 
C     0.5218427   -0.8798824   -3.4818515 
O    -0.0791169    0.3705947   -3.3416050 
O     0.5100434   -1.4677625   -4.7354534 
H     0.0765540   -0.8276168   -5.3892526 
N     1.8659699   -2.8347483   -2.6702253 
H     0.1998396   -1.9783799   -1.6870883 
H     1.2631364   -3.4431267   -3.2774969 
H     2.6522981   -2.5293126   -3.2927810 
