24
Energy =
C     0.3779642    2.2576596   -0.2739771 
C     0.9729481    2.3536284    0.9381554 
C     1.7743982    1.3536879    1.3811039 
C     0.5829155    1.1538933   -1.0325855 
C     1.3645165    0.1399071   -0.5967611 
C     1.9761418    0.2481036    0.6148550 
O     0.7700398    3.4822594    1.7256582 
H    -0.0399097    3.3618620    2.3238978 
H     2.6321797   -0.5397406    0.9756382 
H     0.1040334    0.9468884   -2.0878389 
H    -0.2536047    3.0643054   -0.6293904 
H     2.2588201    1.4505908    2.3471770 
C     1.6101517   -1.0491045   -1.5128555 
C     0.3331115   -1.5671072   -2.2500828 
H     2.0407984   -1.8842084   -0.9169616 
H     2.3798510   -0.7631505   -2.2642755 
C    -0.2230267   -0.5957337   -3.3314468 
O    -0.3471081    0.7685902   -3.0715107 
O    -0.7141102   -1.0479859   -4.5510348 
H    -0.6900463   -2.0537078   -4.6077705 
N     0.6215210   -2.9077594   -2.7977974 
H    -0.4944800   -1.6583102   -1.5069727 
H     1.4983957   -2.8833566   -3.3745415 
H     0.7824632   -3.5875601   -2.0155171 
