24
Energy =
C    -0.0264919    1.7309415    0.9057417 
C    -0.0237447    2.7471121    0.0121119 
C     0.5827309    2.5921581   -1.1871599 
C     0.5892745    0.5584746    0.6077311 
C     1.2164461    0.4006518   -0.5913029 
C     1.2014693    1.4233047   -1.4920785 
O    -0.6535075    3.9483383    0.3225592 
H    -0.0143892    4.5777875    0.7951894 
H     1.6735920    1.3073689   -2.4656500 
H     0.5720661   -0.2524087    1.3314263 
H    -0.5326968    1.8632106    1.8558136 
H     0.5613590    3.4069860   -1.9033089 
C     1.8839038   -0.9140020   -0.9361326 
C     0.8839451   -1.9330429   -1.5332712 
H     2.3446399   -1.3424744   -0.0184406 
H     2.7160814   -0.7478683   -1.6581307 
C     0.2552454   -1.4084493   -2.8175438 
O     1.0446203   -1.1344577   -3.9299037 
O    -1.1107420   -1.1698954   -2.8777139 
H    -1.3414777   -0.8257475   -3.8007008 
N     1.5318156   -3.2576815   -1.7084976 
H     0.0307513   -2.0569782   -0.8263913 
H     1.5454486   -3.5418184   -2.7191837 
H     2.5343327   -3.2592410   -1.4061606 
