24
Energy =
C     0.2723353    1.8443556    0.8614187 
C     0.5181867    2.8453282   -0.0152889 
C     1.1466486    2.5823688   -1.1839445 
C     0.6491444    0.5732833    0.5692070 
C     1.2849557    0.3018016   -0.6041606 
C     1.5271637    1.3142425   -1.4832150 
O     0.1299878    4.1464683    0.2874717 
H    -0.8201182    4.3196401   -0.0219280 
H     2.0232112    1.1157589   -2.4321104 
H     0.4423624   -0.2219287    1.2811350 
H    -0.2243809    2.0724131    1.7982568 
H     1.3431188    3.3948761   -1.8760385 
C     1.6838273   -1.1172033   -0.9448299 
C     0.5284620   -1.9082732   -1.5793884 
H     2.0269774   -1.6422761   -0.0258906 
H     2.5558704   -1.1270409   -1.6395643 
C     0.0680764   -1.2694970   -2.8863724 
O     0.9176094   -1.2103054   -3.9829095 
O    -1.1897927   -0.6893317   -2.9747157 
H    -1.1620340    0.2175450   -2.5325271 
N     0.9880030   -3.3026171   -1.7494453 
H    -0.3554730   -1.8777970   -0.8985042 
H     0.4905483   -3.9252655   -1.0703095 
H     0.7641392   -3.6675464   -2.7085919 
