24
Energy =
C     1.2775842    2.6124717   -0.9286269 
C     1.4181422    2.6054801    0.4167908 
C     1.6084337    1.4368587    1.0715757 
C     1.3212719    1.4483821   -1.6248801 
C     1.5143659    0.2676904   -0.9728645 
C     1.6520415    0.2680610    0.3823645 
O     1.3718461    3.8007414    1.1273608 
H     0.4192361    4.0147424    1.4020160 
H     1.7964588   -0.6639738    0.9225565 
H     1.1917295    1.4673979   -2.7050622 
H     1.1277187    3.5565209   -1.4407842 
H     1.7241536    1.4459180    2.1502357 
C     1.5308647   -1.0357553   -1.7409885 
C     0.1269894   -1.6820566   -1.7967481 
H     2.2518337   -1.7344968   -1.2628072 
H     1.9051527   -0.8665072   -2.7770291 
C    -0.8645136   -0.8090978   -2.5434498 
O    -0.6405685   -0.4651170   -3.8735433 
O    -1.9802648   -0.3067498   -1.8860276 
H    -2.5277307    0.2392277   -2.5387191 
N     0.2200416   -3.0224880   -2.4037783 
H    -0.2916900   -1.7740390   -0.7662227 
H     0.5484970   -2.9404280   -3.3976640 
H     0.9103294   -3.6140711   -1.8848087 
