24
Energy =
C     1.2193216    2.0774865    0.8980459 
C     0.3354060    2.8174811    0.1903677 
C    -0.0642228    2.3931050   -1.0384413 
C     1.7084648    0.9181499    0.3897477 
C     1.3148809    0.4918523   -0.8413851 
C     0.4215568    1.2344322   -1.5513744 
O    -0.1474261    4.0057058    0.7486915 
H    -0.8015784    4.5045380    0.1555502 
H     0.0906037    0.9067820   -2.5338511 
H     2.4126286    0.3330013    0.9767464 
H     1.5287082    2.4247840    1.8778921 
H    -0.7739443    2.9785201   -1.6129780 
C     1.8427607   -0.8079858   -1.4060212 
C     0.8529636   -1.9781276   -1.2035262 
H     2.8177440   -1.0772093   -0.9397023 
H     2.0619230   -0.6723770   -2.4899606 
C     1.2249058   -3.1875206   -2.0562798 
O     0.3738250   -4.2860968   -2.1036647 
O     2.3789781   -3.1952429   -2.8343373 
H     2.4479942   -4.0890940   -3.3042861 
N     0.8081999   -2.3233280    0.2292035 
H    -0.1608168   -1.6763952   -1.5553049 
H     0.3161269   -1.5600889    0.7502694 
H     0.2159408   -3.1787220    0.3611861 
