24
Energy =
C     0.1731083    2.2233532    0.2592389 
C    -0.8281640    2.4325890   -0.6264801 
C    -0.9459278    1.6379390   -1.7149779 
C     1.0692173    1.2249965    0.0523017 
C     0.9658992    0.4301098   -1.0483987 
C    -0.0546169    0.6359114   -1.9273854 
O    -1.7442542    3.4579620   -0.4131387 
H    -1.4218419    4.3197165   -0.8390717 
H    -0.1660738   -0.0020457   -2.8007510 
H     1.8607358    1.0572025    0.7784119 
H     0.2440162    2.8553052    1.1375765 
H    -1.7632447    1.8064732   -2.4083671 
C     1.9470398   -0.6994524   -1.2690232 
C     1.4633260   -2.0039989   -0.6057244 
H     2.9486847   -0.4250547   -0.8675727 
H     2.0913197   -0.8593612   -2.3619836 
C     2.2666504   -3.1938840   -1.1024609 
O     3.5483211   -3.4388130   -0.6232991 
O     1.7381231   -4.0179273   -2.0856157 
H     2.4119860   -4.7426107   -2.3002446 
N     1.5196607   -1.8555875    0.8617351 
H     0.4116362   -2.2049978   -0.9210738 
H     1.1451452   -2.7256031    1.3110255 
H     2.5214368   -1.7856321    1.1646897 
