24
Energy =
C    -0.5418384    1.5743406    0.7269034 
C    -0.6149063    2.5552018   -0.2120398 
C     0.1634582    2.4832266   -1.3157674 
C     0.3099401    0.5310977    0.5582651 
C     1.1008393    0.4628929   -0.5478123 
C     1.0164278    1.4418743   -1.4899122 
O    -1.4816087    3.6435495   -0.0694333 
H    -2.0308171    3.6248423    0.7829529 
H     1.6282348    1.3989975   -2.3876520 
H     0.3484713   -0.2563140    1.3080023 
H    -1.1676350    1.6195358    1.6116755 
H     0.0917657    3.2696665   -2.0591789 
C     2.0343638   -0.7107896   -0.7484804 
C     1.3279607   -1.8839975   -1.4483051 
H     2.4317096   -1.0642732    0.2304362 
H     2.9198597   -0.3892055   -1.3417752 
C     2.3417612   -2.9282400   -1.8971831 
O     2.2713738   -3.4614722   -3.1781497 
O     3.3299083   -3.3753898   -1.0280990 
H     3.8887740   -4.0742992   -1.5011267 
N     0.3080289   -2.4331741   -0.5276550 
H     0.8485466   -1.5090304   -2.3846087 
H    -0.6430621   -2.2918996   -0.9426908 
H     0.4249541   -3.4683002   -0.4003494 
