24
Energy =
C    -0.1701700    1.8045424    0.7198589 
C     0.1349041    2.8225777   -0.1275576 
C     0.9588669    2.5953055   -1.1750440 
C     0.3490421    0.5672534    0.5146929 
C     1.1742263    0.3338378   -0.5444629 
C     1.4803125    1.3600763   -1.3860156 
O    -0.3799340    4.1099518    0.0571782 
H    -1.0013951    4.1944902    0.8540696 
H     2.1443947    1.2039492   -2.2312472 
H     0.0970410   -0.2362761    1.2038475 
H    -0.8297443    1.9775193    1.5633594 
H     1.1953946    3.4168729   -1.8421356 
C     1.7535511   -1.0501084   -0.7745212 
C     0.7709515   -2.0324701   -1.4694252 
H     2.0606544   -1.4792762    0.2069708 
H     2.6879792   -0.9850485   -1.3743890 
C    -0.4981219   -2.2496611   -0.6587458 
O    -0.4100011   -2.8303141    0.6027926 
O    -1.7446229   -1.8534011   -1.1270457 
H    -2.4435631   -2.0958227   -0.4395494 
N     0.4763821   -1.6255465   -2.8605132 
H     1.2602028   -3.0342125   -1.4760390 
H     0.9579151   -0.7403563   -3.1349656 
H     0.7914051   -2.3682511   -3.5269034 
