24
Energy =
C    -0.9479550    1.6836513    0.3369200 
C    -0.8939026    2.5126470   -0.7390329 
C     0.0855492    2.3529395   -1.6571777 
C    -0.0231629    0.7013931    0.4889309 
C     0.9648413    0.5382058   -0.4351335 
C     1.0114489    1.3717768   -1.5115849 
O    -1.8302598    3.5337716   -0.9258347 
H    -2.5378876    3.5837466   -0.2005996 
H     1.7869264    1.2542019   -2.2647003 
H    -0.0827560    0.0452826    1.3550113 
H    -1.7323476    1.8023958    1.0771106 
H     0.1162792    3.0201226   -2.5119367 
C     1.9931229   -0.5677423   -0.2829622 
C     1.5733837   -1.8885835   -0.9670968 
H     2.1991310   -0.7523414    0.7958378 
H     2.9612144   -0.2363968   -0.7194898 
C     0.3893422   -2.5703067   -0.2637393 
O     0.2044128   -2.3850288    1.1000741 
O    -0.4677752   -3.4513662   -0.9220870 
H    -0.1510386   -3.6879556   -1.8469357 
N     1.3525849   -1.6294137   -2.4037399 
H     2.4255073   -2.5970640   -0.8545736 
H     1.4956972   -2.5096235   -2.9512207 
H     0.3647819   -1.3101218   -2.5613667 
