24
Energy =
C    -0.9344725    0.0538102    0.9066999 
C    -1.3914436    1.2574917    0.4684563 
C    -0.6596335    1.9669807   -0.4204009 
C     0.2509673   -0.4307148    0.4572444 
C     0.9934925    0.2878870   -0.4293980 
C     0.5266431    1.4882198   -0.8718766 
O    -2.6068133    1.7868303    0.9142703 
H    -3.1043920    1.1888528    1.5651197 
H     1.0944133    2.0668873   -1.5970319 
H     0.5993354   -1.3984669    0.8092698 
H    -1.5176095   -0.5253257    1.6146366 
H    -1.0387323    2.9209871   -0.7700612 
C     2.3032612   -0.2638034   -0.9517722 
C     2.0931810   -1.2011730   -2.1652704 
H     2.8156866   -0.8229062   -0.1374111 
H     2.9860129    0.5679108   -1.2401022 
C     1.4252111   -0.4716404   -3.3235859 
O     2.0984362    0.5375831   -4.0042944 
O     0.1226823   -0.7862891   -3.6864666 
H    -0.1511691   -0.2032622   -4.4668620 
N     3.3729857   -1.8472806   -2.5523742 
H     1.3742332   -2.0036758   -1.8784744 
H     3.6437836   -1.5942977   -3.5351263 
H     4.1750904   -1.5358769   -1.9559054 
