24
Energy =
C    -0.3942760    2.0723372   -0.2882591 
C    -1.5435262    1.4071654    0.0047156 
C    -1.5214777    0.0620293    0.1402781 
C     0.7690379    1.3900650   -0.4393798 
C     0.7943044    0.0363563   -0.2934669 
C    -0.3612785   -0.6253956   -0.0105607 
O    -2.7586581    2.0786353    0.1702473 
H    -2.6956166    3.0827460    0.0390860 
H    -0.3629535   -1.7071074    0.0922854 
H     1.6780348    1.9349668   -0.6870185 
H    -0.4028218    3.1506652   -0.4070734 
H    -2.4470546   -0.4558531    0.3669648 
C     2.0852902   -0.7302053   -0.4867402 
C     2.2138040   -1.2822871   -1.9254262 
H     2.1286781   -1.5685594    0.2425886 
H     2.9594532   -0.0765434   -0.2610749 
C     2.2402428   -0.1675076   -2.9605748 
O     3.2013020    0.8381199   -2.8913084 
O     1.2808722   -0.1202870   -3.9641922 
H     1.4691326    0.6798281   -4.5529008 
N     3.4132581   -2.1291108   -2.0298275 
H     1.3217121   -1.9063666   -2.1606584 
H     4.2680656   -1.5612712   -1.8125819 
H     3.3623588   -2.9108822   -1.3358905 
