24
Energy =
C    -0.2809708    2.2375619   -0.9538927 
C    -0.6144973    2.2827473    0.3632606 
C    -0.0861066    1.3778552    1.2178835 
C     0.5771614    1.2895777   -1.4079798 
C     1.1095865    0.3761260   -0.5487705 
C     0.7726185    0.4269198    0.7699358 
O    -1.4947564    3.2466626    0.8647073 
H    -1.8527098    3.8855925    0.1627192 
H     1.1843675   -0.2888754    1.4762991 
H     0.8340983    1.2673748   -2.4646815 
H    -0.6997787    2.9592745   -1.6470454 
H    -0.3612022    1.4262341    2.2660862 
C     2.0623247   -0.6835304   -1.0619111 
C     1.3310169   -1.7879575   -1.8674363 
H     2.6372297   -1.1418811   -0.2276449 
H     2.8196632   -0.1851884   -1.7113850 
C     2.3253554   -2.5896510   -2.7045134 
O     2.3227063   -2.4398984   -4.0836419 
O     3.2882532   -3.4130120   -2.1208073 
H     3.2147005   -3.4337186   -1.1164157 
N     0.4906484   -2.6401187   -0.9921016 
H     0.6615881   -1.3062555   -2.6184042 
H     0.8356131   -3.6291205   -0.9443919 
H     0.4168547   -2.2789559   -0.0134370 
