24
Energy =
C     0.7871912    2.6108003   -0.0769455 
C    -0.3466687    2.3951932    0.6423390 
C    -0.7042512    1.1312504    0.9633256 
C     1.5568064    1.5630467   -0.4677853 
C     1.2032101    0.2907259   -0.1350997 
C     0.0624958    0.0804616    0.5760707 
O    -1.1622448    3.4512971    1.0608071 
H    -0.8296033    4.3670099    0.7788186 
H    -0.2449050   -0.9312729    0.8272617 
H     2.4562620    1.7500865   -1.0492584 
H     1.0790457    3.6208380   -0.3437385 
H    -1.6154215    0.9730267    1.5298550 
C     2.0459376   -0.8814954   -0.5883943 
C     1.5122801   -1.4775045   -1.9089587 
H     2.0642260   -1.6579706    0.2079485 
H     3.1028177   -0.5518922   -0.7186512 
C     2.5533994   -2.3471480   -2.6130932 
O     2.9166209   -2.0389804   -3.9171988 
O     3.1439204   -3.4487580   -1.9940665 
H     2.8175172   -3.5712942   -1.0484847 
N     0.2521589   -2.1998376   -1.6460610 
H     1.3121581   -0.6369180   -2.6178820 
H    -0.1758927   -2.4911442   -2.5587024 
H     0.4431892   -3.0817602   -1.1139816 
