24
Energy =
C    -0.0226801    1.6933403    1.0052436 
C    -0.3276543    2.6254135    0.0732400 
C     0.1074952    2.4780777   -1.1992707 
C     0.7302134    0.6150139    0.6699159 
C     1.1847765    0.4668350   -0.6053305 
C     0.8600414    1.4013418   -1.5422527 
O    -1.0990502    3.7300150    0.4201589 
H    -0.5115844    4.4894228    0.7464537 
H     1.1964144    1.2911784   -2.5702501 
H     0.9580336   -0.1352826    1.4224636 
H    -0.3946096    1.8141612    2.0166456 
H    -0.1577177    3.2246326   -1.9406778 
C     2.0018618   -0.7475690   -0.9887234 
C     1.0932555   -1.9310365   -1.3862927 
H     2.6646841   -1.0353878   -0.1429847 
H     2.6794452   -0.4869520   -1.8345426 
C     1.8560663   -3.0113561   -2.1503985 
O     1.4227571   -3.3693607   -3.4198726 
O     2.9688266   -3.6587220   -1.6135466 
H     3.2012616   -3.3137757   -0.6954694 
N     0.4163654   -2.4568862   -0.1850301 
H     0.3241925   -1.5577196   -2.1059248 
H    -0.2771890   -3.1905841   -0.4705038 
H     1.1080284   -2.9289898    0.4438454 
