24
Energy =
C     0.2467700    1.4184508    1.1422273 
C    -0.6644541    2.2482155    0.5874514 
C    -0.8256249    2.2627072   -0.7619903 
C     1.0012999    0.6046330    0.3614907 
C     0.8406328    0.6078316   -0.9918229 
C    -0.0765203    1.4483293   -1.5483568 
O    -1.4178233    3.0770450    1.4248968 
H    -2.0911055    3.6593024    0.9394772 
H    -0.2172795    1.4769446   -2.6257575 
H     1.7266005   -0.0557298    0.8315565 
H     0.3623096    1.4118252    2.2209134 
H    -1.5537101    2.9273321   -1.2134664 
C     1.6824878   -0.3012133   -1.8707060 
C     1.2194577   -1.7829106   -1.8702297 
H     2.7423889   -0.2443256   -1.5349621 
H     1.6850738    0.0690980   -2.9203022 
C     1.3889841   -2.4361807   -0.4928032 
O     0.3278668   -2.4676493    0.4045221 
O     2.6303899   -2.9076621   -0.0652825 
H     3.3373851   -2.8371462   -0.7815029 
N    -0.1371642   -1.9373859   -2.4494393 
H     1.9111730   -2.3390259   -2.5411695 
H    -0.7947329   -2.3918780   -1.7695095 
H    -0.5770327   -1.0214383   -2.6914388 
