24
Energy =
C    -0.6416465    1.5060635    0.6829831 
C    -0.6078188    2.5381445   -0.1911859 
C     0.2678608    2.5233314   -1.2223832 
C     0.2095998    0.4589240    0.5351126 
C     1.1039731    0.4439062   -0.4920561 
C     1.1216644    1.4793202   -1.3772449 
O    -1.4820698    3.6094353   -0.0367294 
H    -1.0751848    4.3194065    0.5619601 
H     1.8143178    1.4775090   -2.2154506 
H     0.1624221   -0.3739683    1.2331753 
H    -1.3621900    1.5229059    1.4934129 
H     0.2743976    3.3497185   -1.9253523 
C     2.0367072   -0.7330536   -0.6753438 
C     1.3867262   -1.8460848   -1.5142399 
H     2.3306107   -1.1548572    0.3129155 
H     2.9802298   -0.3923536   -1.1581902 
C     2.4260092   -2.8795312   -1.9282233 
O     2.4863865   -3.3177806   -3.2452089 
O     3.3079818   -3.4100719   -0.9941843 
H     3.9034772   -4.0864740   -1.4550919 
N     0.2742081   -2.4318497   -0.7340371 
H     1.0064287   -1.4039271   -2.4666622 
H    -0.6292083   -2.2506033   -1.2319414 
H     0.3670966   -3.4743996   -0.6581286 
