24
Energy =
C     0.2090640    1.8739004    0.8609374 
C     0.1685352    2.8092618   -0.1248437 
C     0.6298918    2.5008240   -1.3576945 
C     0.7128838    0.6385560    0.6092153 
C     1.1834242    0.3275146   -0.6310004 
C     1.1345969    1.2677658   -1.6148154 
O    -0.3408223    4.0918333    0.1019124 
H    -0.6830468    4.2381595    1.0452784 
H     1.4895037    1.0350410   -2.6149887 
H     0.7292045   -0.1023964    1.4057066 
H    -0.1650553    2.1100313    1.8513876 
H     0.5849222    3.2529980   -2.1374051 
C     1.7358391   -1.0555959   -0.9216096 
C     0.6714945   -2.0143185   -1.4998265 
H     2.1685009   -1.4964213    0.0047606 
H     2.5795843   -0.9737518   -1.6407748 
C    -0.4528772   -2.2987956   -0.5051373 
O    -0.1746226   -2.4141749    0.8536143 
O    -1.7395742   -2.5821447   -0.9473875 
H    -2.3243064   -2.7731130   -0.1439333 
N     0.1874314   -1.4729239   -2.7853497 
H     1.1510866   -3.0050797   -1.6711210 
H     0.9040791   -1.6553695   -3.5251019 
H    -0.6793092   -1.9867205   -3.0813534 
