24
Energy =
C     1.9313764    2.3607165   -0.7324808 
C     1.0743061    2.7479411    0.2495561 
C     0.3215472    1.8210515    0.8837088 
C     2.0335483    1.0504587   -1.0708534 
C     1.2823267    0.1149151   -0.4271339 
C     0.4189274    0.5095965    0.5486384 
O     0.9467062    4.0881658    0.6266552 
H     1.5301219    4.7234443    0.0923451 
H    -0.1986739   -0.2214854    1.0628248 
H     2.7156341    0.7569824   -1.8661321 
H     2.5344685    3.0975058   -1.2524087 
H    -0.3621560    2.1460972    1.6603586 
C     1.3774508   -1.3448453   -0.8178607 
C     0.2666884   -1.7504745   -1.8172303 
H     1.3058220   -1.9749923    0.0958039 
H     2.3728381   -1.5611179   -1.2711896 
C     0.3579538   -0.9673889   -3.1172213 
O    -0.7610579   -0.3019278   -3.6070786 
O     1.5531723   -0.8877053   -3.8237158 
H     1.3867328   -0.3597777   -4.6693242 
N     0.3134073   -3.2032203   -2.0866924 
H    -0.7224358   -1.4834991   -1.3758284 
H     1.0556404   -3.6973618   -1.5380230 
H    -0.6038802   -3.6423605   -1.8375060 
