24
Energy =
C    -0.5905427    1.7867075   -0.4111045 
C     0.0100741    2.7777668   -1.1300431 
C     1.2678277    2.5825049   -1.5731734 
C     0.0492601    0.5901142   -0.1475523 
C     1.3219856    0.4316902   -0.6046722 
C     1.9174423    1.4249026   -1.3190403 
O    -0.6453122    4.0031503   -1.4118622 
H    -1.5824118    3.9492552   -1.0402939 
H     2.9178072    1.2901607   -1.7081523 
H    -1.4233585   -1.3869331    1.7152177 
H    -1.5957686    1.9145547   -0.0312059 
H     1.7582880    3.3585418   -2.1462570 
C     1.9977475   -0.8964650   -0.4378908 
C     1.1077761   -2.0099627   -1.0369119 
H     2.1742533   -1.0815627    0.6435230 
H     2.9734048   -0.9032989   -0.9450494 
C    -0.1180070   -2.2128832   -0.1570194 
O    -0.2879704   -3.4107210    0.5518024 
O    -1.0788387   -1.2059180    0.0661971 
H    -0.6460744   -0.2055486    1.2782835 
N     0.7316404   -1.7211874   -2.4394016 
H     1.6749535   -2.9562110   -1.0100810 
H    -0.0190487   -0.9789908   -2.3022021 
H     1.5055835   -1.1860298   -2.8819877 
