24
Energy =
C    -1.4030448    1.2433695   -1.6314185 
C    -1.0801105    2.3326628   -0.8983470 
C     0.1601859    2.4301147   -0.3502378 
C    -0.4987610    0.2497522   -1.8217903 
C     0.7447559    0.3406772   -1.2741421 
C     1.0694681    1.4395620   -0.5375258 
O    -2.0394169    3.3354203   -0.7257595 
H    -1.7292653    4.1179056   -0.1599773 
H     2.0570852    1.5340619   -0.0927829 
H    -0.7772868   -0.6178443   -2.4154945 
H    -2.3959360    1.1774594   -2.0637285 
H     0.4258433    3.3010834    0.2386194 
C     1.7494782   -0.7737207   -1.4843202 
C     1.4157764   -2.0391879   -0.6407539 
H     2.7829765   -0.4352922   -1.2460322 
H     1.7593187   -1.0247701   -2.5705549 
C     2.1955115   -3.2599516   -1.1750263 
O     2.0416579   -3.5521395   -2.5268320 
O     3.0403570   -4.1048119   -0.4469561 
H     2.9984775   -4.0015763    0.5490613 
N     1.5141105   -1.7493431    0.8097053 
H     0.3567737   -2.3110037   -0.8368128 
H     2.1313379   -2.3889536    1.3380047 
H     1.8707868   -0.7857114    1.0065245 
