24
Energy =
C    -0.7267074    1.9157998   -1.5783027 
C    -0.8574420    2.3733018   -0.3044204 
C    -0.0461995    1.8919867    0.6647220 
C     0.2123300    0.9818327   -1.8760965 
C     1.0337755    0.5020118   -0.9020687 
C     0.8951992    0.9593932    0.3728129 
O    -1.8164142    3.3328218    0.0362017 
H    -2.3839515    3.6534349   -0.7401987 
H     1.5323238    0.5775135    1.1674738 
H     0.3022030    0.6224491   -2.8982994 
H    -1.3753726    2.2962759   -2.3588554 
H    -0.1599285    2.2602606    1.6792274 
C     2.0677318   -0.5530064   -1.2291004 
C     1.4719810   -1.9761682   -1.2060004 
H     2.9172399   -0.5064955   -0.5097359 
H     2.5073222   -0.3379015   -2.2293288 
C     2.4414117   -2.9968568   -1.7967436 
O     3.7570295   -2.6578537   -2.0865319 
O     2.0064188   -4.2882391   -2.0646347 
H     1.4650341   -4.2875678   -2.9160189 
N     1.1082815   -2.3202400    0.1811543 
H     0.5663274   -2.0059462   -1.8547207 
H     0.1996190   -1.8589971    0.4204562 
H     0.9315947   -3.3535066    0.2518973 
