24
Energy =
C     0.0131818    2.4810327   -1.0664906 
C    -0.5308999    2.4080042    0.1775936 
C    -0.2336945    1.3580654    0.9767210 
C     0.8535137    1.5074883   -1.5012050 
C     1.1617702    0.4550733   -0.6939351 
C     0.6076733    0.3833671    0.5478785 
O    -1.3961812    3.3960082    0.6574160 
H    -1.5858075    4.1391910   -0.0059609 
H     0.8235552   -0.4589246    1.2013547 
H     1.2713073    1.5648064   -2.5039513 
H    -0.2265212    3.3154458   -1.7169822 
H    -0.6833857    1.3051651    1.9625073 
C     2.0878498   -0.6394688   -1.1852013 
C     1.3417963   -1.7840281   -1.8976901 
H     2.6728596   -1.0489353   -0.3316823 
H     2.8367298   -0.2135010   -1.8893975 
C     0.3658121   -2.5086357   -0.9596206 
O    -0.9872884   -2.1883136   -0.9712136 
O     0.8213426   -3.4421862   -0.0274450 
H     1.8146055   -3.6026334   -0.1049697 
N     0.7127919   -1.2677321   -3.1281380 
H     2.1074058   -2.5350917   -2.1976072 
H     0.4206827   -2.0810663   -3.7210932 
H    -0.1773419   -0.7664076   -2.8879425 
