24
Energy =
C     0.3949384    2.2176410    0.5449560 
C     0.3946299    3.0041742   -0.5559683 
C     0.8261546    2.5116695   -1.7395716 
C     0.8344079    0.9355931    0.4677237 
C     1.2839349    0.4373653   -0.7176656 
C     1.2717837    1.2323014   -1.8240114 
O    -0.0615313    4.3158300   -0.4731543 
H     0.6920392    4.9412899   -0.2101832 
H     1.6041814    0.8464038   -2.7863722 
H     0.8230269    0.3135217    1.3592203 
H     0.0329963    2.6228510    1.4836017 
H     0.8042521    3.1463802   -2.6195556 
C     1.7484664   -0.9991174   -0.8130784 
C     0.5955535   -1.9597032   -1.1493225 
H     2.2158626   -1.3074270    0.1487976 
H     2.5505764   -1.1038805   -1.5804255 
C     0.0727843   -1.7149303   -2.5708475 
O     0.7444831   -2.2601515   -3.6571690 
O    -1.0337216   -0.9016271   -2.8158841 
H    -1.3746735   -0.4484066   -1.9820575 
N     1.0965330   -3.3357883   -0.9445236 
H    -0.2561139   -1.7675705   -0.4557742 
H     0.6484182   -3.7589313   -0.0981102 
H     0.8593167   -3.9612686   -1.7545120 
