24
Energy =
C    -0.1815152    2.0559989   -2.0105400 
C    -1.0012525    2.3975304   -0.9811172 
C    -0.8589631    1.7874716    0.2172622 
C     0.7733767    1.1077379   -1.8361031 
C     0.9164701    0.4901684   -0.6304832 
C     0.0942258    0.8382152    0.3978750 
O    -1.9948353    3.3709304   -1.1261184 
H    -2.0429465    3.7790615   -2.0535733 
H     0.1915624    0.3628102    1.3703649 
H     1.4233421    0.8467379   -2.6680854 
H    -0.2873339    2.5406357   -2.9751277 
H    -1.5194143    2.0707774    1.0297753 
C     1.9815064   -0.5707032   -0.4422857 
C     1.6249236   -1.9045380   -1.1607772 
H     2.1651675   -0.7718538    0.6372156 
H     2.9421964   -0.1641582   -0.8369218 
C     2.8784688   -2.7959732   -1.2844526 
O     3.9882809   -2.2300022   -1.9000811 
O     3.0146643   -4.1144909   -0.8458016 
H     2.1526534   -4.5513480   -0.5865476 
N     0.4076736   -2.5114075   -0.5685553 
H     1.3818940   -1.6716750   -2.2201852 
H     0.5035864   -3.4987966   -0.2762299 
H     0.0584250   -1.9906456    0.2705238 
