24
Energy =
C    -0.0623615    2.3966126   -1.0836402 
C     0.3165231    2.7715989    0.1594858 
C     1.1616738    1.9792371    0.8719909 
C     0.3950125    1.2380971   -1.6221320 
C     1.2447307    0.4442464   -0.9148407 
C     1.6224349    0.8197303    0.3380877 
O    -0.1781685    3.9716709    0.6807565 
H     0.1571162    4.1853660    1.6137811 
H     2.2923765    0.1921709    0.9215907 
H     0.0768581    0.9528785   -2.6216969 
H    -0.7375594    3.0358997   -1.6418679 
H     1.4694129    2.2698663    1.8706877 
C     1.7409033   -0.8557193   -1.5073761 
C     0.7029917   -1.9924312   -1.3715267 
H     2.6920732   -1.1747263   -1.0219972 
H     1.9928987   -0.6932523   -2.5801963 
C     1.0731233   -3.1896752   -2.2363565 
O     2.3931340   -3.4388340   -2.5999681 
O     0.0812976   -4.0594966   -2.6685217 
H     0.5168774   -4.7995952   -3.2037048 
N     0.5848239   -2.3751451    0.0463672 
H    -0.2843466   -1.6445577   -1.7558418 
H     0.1061303   -1.6045748    0.5687993 
H    -0.0520098   -3.2042309    0.1250687 
