24
Energy =
C    -0.0204644    1.7378597    0.8913953 
C     0.2452846    2.7883543    0.0696222 
C     0.9770111    2.5921442   -1.0506660 
C     0.4481127    0.5004180    0.5900479 
C     1.1920907    0.3032597   -0.5334274 
C     1.4493107    1.3574446   -1.3562141 
O    -0.2209236    4.0762982    0.3520324 
H    -0.7701956    4.1408303    1.2022456 
H     2.0275047    1.2193554   -2.2674930 
H     0.2222673   -0.3308648    1.2532146 
H    -0.6102985    1.8847498    1.7898158 
H     1.1761904    3.4361709   -1.7022295 
C     1.6954526   -1.0819149   -0.8803957 
C     0.6245738   -1.9229946   -1.6019736 
H     2.0124868   -1.6023328    0.0495883 
H     2.6056149   -1.0254951   -1.5213776 
C     0.2436129   -1.3199479   -2.9473740 
O     1.2130659   -0.8213913   -3.8133701 
O    -1.0909839   -1.2811236   -3.3300930 
H    -1.1537776   -0.8687516   -4.2521006 
N     1.1359191   -3.2968113   -1.7493073 
H    -0.3114092   -1.9338155   -0.9948044 
H     1.1542538   -3.7603178   -0.8106964 
H     0.4650442   -3.8544350   -2.3324659 
