24
Energy =
C     0.1735875    1.4778274    1.3610531 
C     0.6414720    2.5693491    0.7130972 
C     1.3794431    2.4243974   -0.4112034 
C     0.4495310    0.2346478    0.8909955 
C     1.1965738    0.0798762   -0.2381685 
C     1.6598227    1.1846504   -0.8876526 
O     0.3573155    3.8418188    1.1987506 
H     1.0614422    4.1365602    1.8662426 
H     2.2544779    1.0835083   -1.7925511 
H     0.0658363   -0.6318253    1.4228382 
H    -0.4269009    1.6102097    2.2543848 
H     1.7394826    3.3081914   -0.9275800 
C     1.5045637   -1.3009832   -0.7768757 
C     0.6581588   -1.6427429   -2.0288464 
H     1.3469079   -2.0837244   -0.0006424 
H     2.5887318   -1.3438872   -1.0320148 
C     1.2415451   -2.8547754   -2.7391970 
O     2.1180224   -2.6781549   -3.8023054 
O     0.9677016   -4.1408378   -2.2898710 
H     1.4650305   -4.8023868   -2.8730100 
N    -0.7787569   -1.8039746   -1.6896050 
H     0.7498926   -0.8154417   -2.7699790 
H    -1.1151520   -2.7721260   -1.9193752 
H    -0.9599254   -1.6876966   -0.6670149 
