24
Energy =
C    -0.6768657    1.6043596    0.6994084 
C    -0.4963254    2.7185440   -0.0448442 
C     0.4809500    2.7571811   -0.9785563 
C     0.1177363    0.5194710    0.5083047 
C     1.0976975    0.5435056   -0.4395836 
C     1.2770291    1.6758363   -1.1784631 
O    -1.3104533    3.8281151    0.1560805 
H    -2.1284461    3.7831833   -0.4415993 
H     2.0584512    1.7273022   -1.9322836 
H    -0.0513655   -0.3748184    1.1074745 
H    -1.4639530    1.5903900    1.4465608 
H     0.6222908    3.6620970   -1.5603539 
C     1.9949784   -0.6632999   -0.6576398 
C     1.3092726   -1.8415930   -1.4009538 
H     2.3680578   -1.0180701    0.3302424 
H     2.9037781   -0.3707725   -1.2290149 
C     0.2443353   -2.5137295   -0.5344899 
O     0.6393708   -3.4832797    0.3744570 
O    -1.0647622   -2.0454108   -0.4693727 
H    -1.5613219   -2.2776086   -1.3159296 
N     0.8684657   -1.4595043   -2.7660201 
H     2.0818586   -2.6354945   -1.5217283 
H    -0.1471307   -1.6523182   -2.9172543 
H     0.9948389   -0.4394065   -2.9560053 
