24
Energy =
C     0.2617268    1.9857636    0.5858264 
C     0.5325432    2.8807707   -0.3910098 
C     1.1475728    2.4779105   -1.5259062 
C     0.6126032    0.6830522    0.4343441 
C     1.2289273    0.2659748   -0.7084132 
C     1.4993167    1.1766896   -1.6865046 
O     0.1742230    4.2155665   -0.2308929 
H     0.9188728    4.7353996    0.2201848 
H     1.9980581    0.8734165   -2.6033134 
H     0.3935045   -0.0209559    1.2344223 
H    -0.2414727    2.3223773    1.4860095 
H     1.3527053    3.2052120   -2.3045404 
C     1.6179155   -1.1910743   -0.8859957 
C     0.4239016   -2.1119176   -1.2708858 
H     2.0823841   -1.5587574    0.0583527 
H     2.4130345   -1.2904687   -1.6584070 
C    -0.6069170   -2.2120334   -0.1277926 
O    -0.1186552   -2.5373029    1.1315408 
O    -1.9823707   -2.0049360   -0.2282456 
H    -2.3160680   -1.9633655   -1.1698259 
N    -0.0673149   -1.8008443   -2.6372075 
H     0.8297726   -3.1471960   -1.3152171 
H    -1.0914092   -1.6747467   -2.7236941 
H     0.3639789   -0.9354056   -3.0377073 
