24
Energy =
C    -0.7673269    1.8535179   -0.2850512 
C     0.1228314    2.8781879   -0.3959967 
C     1.4527083    2.6179441   -0.3448068 
C    -0.3129958    0.5857048   -0.1116212 
C     1.0075654    0.3291460   -0.0694445 
C     1.9007636    1.3441329   -0.1912807 
O    -0.2975130    4.2039451   -0.5632869 
H    -1.3007144    4.3095052   -0.6699566 
H     2.9674534    1.1418421   -0.1885495 
H    -2.0158212   -1.9344133    0.1060207 
H    -1.8316302    2.0350144   -0.3620081 
H     2.1514725    3.4390791   -0.4494694 
C     1.4051536   -1.1207612    0.0350836 
C     0.9015268   -1.9610988   -1.1812753 
H     1.0268818   -1.5526143    0.9858144 
H     2.5152979   -1.2037998    0.1037040 
C    -0.4714327   -1.5727193   -1.7799380 
O    -0.8153432   -2.0392481   -3.0432005 
O    -1.4319677   -0.8211667   -1.0713133 
H    -1.1859365   -0.7992355    0.5738825 
N     1.9727557   -1.9143992   -2.1957230 
H     0.7439279   -3.0176767   -0.8573879 
H     2.7358984   -2.5781948   -1.9304398 
H     1.6159141   -2.2372569   -3.1279044 
