24
Energy =
C    -0.5968990    0.8796240    1.1175032 
C    -0.4874433    2.1624470    0.7013496 
C     0.3760472    2.4810047   -0.2898757 
C     0.1671277   -0.0893640    0.5514563 
C     1.0517308    0.2261410   -0.4356136 
C     1.1450649    1.5185845   -0.8595137 
O    -1.2704234    3.1524941    1.2863401 
H    -0.8062793    3.5453415    2.0975852 
H     1.8258507    1.7885688   -1.6647453 
H     0.0620604   -1.1166303    0.8911880 
H    -1.3069023    0.6368863    1.9008339 
H     0.4402178    3.5095811   -0.6295653 
C     1.8899666   -0.8575173   -1.0809051 
C     1.1687587   -1.5094571   -2.2774225 
H     2.1353400   -1.6351257   -0.3250006 
H     2.8679885   -0.4465689   -1.4211322 
C     0.9732415   -0.5176975   -3.4165533 
O    -0.2377364   -0.4665580   -4.0912006 
O     2.0140359    0.3033584   -3.8329560 
H     2.5978901   -0.2299921   -4.4613510 
N     1.9501381   -2.6799946   -2.7145050 
H     0.1481131   -1.8337510   -1.9626191 
H     1.9142859   -3.4152740   -1.9691949 
H     1.4832090   -3.1082519   -3.5511998 
