24
Energy =
C     0.3785994    1.4525198    1.0395903 
C    -0.5521689    2.1977714    0.3855377 
C    -0.5883717    2.1864920   -0.9661488 
C     1.2673923    0.7027737    0.3395663 
C     1.2375889    0.6974632   -1.0215652 
C     0.2987807    1.4407845   -1.6712261 
O    -1.4822214    2.9801711    1.0765064 
H    -1.3937200    2.9351082    2.0860276 
H     0.2462002    1.4369564   -2.7584724 
H     2.0017035    0.1069864    0.8766174 
H     0.4121956    1.4527897    2.1239958 
H    -1.3401483    2.7793155   -1.4763732 
C     2.2134328   -0.1593639   -1.8000953 
C     1.7211819   -1.6114508   -1.9418279 
H     3.2022556   -0.1512240   -1.2914927 
H     2.3916773    0.2633048   -2.8162397 
C     0.4213247   -1.6915064   -2.7373522 
O     0.2352208   -0.9249796   -3.8810174 
O    -0.5911509   -2.5485511   -2.3303430 
H    -1.0975284   -2.1202457   -1.5698744 
N     2.7920460   -2.4002679   -2.5739499 
H     1.5042854   -2.0263953   -0.9296691 
H     3.5468907   -2.5801842   -1.8715425 
H     2.4161277   -3.3426096   -2.8453702 
