24
Energy =
C    -0.2201462    2.2837803   -1.1599848 
C    -0.4486260    2.4525409    0.1697286 
C     0.1379038    1.6203819    1.0598961 
C     0.5922870    1.2856889   -1.5908619 
C     1.1861418    0.4491378   -0.6952853 
C     0.9509161    0.6201810    0.6346604 
O    -1.2809542    3.4689913    0.6478803 
H    -1.6808685    4.0537073   -0.0783533 
H     1.4110868   -0.0398916    1.3651237 
H     0.7649931    1.1604060   -2.6572938 
H    -0.6871933    2.9456822   -1.8814845 
H    -0.0537338    1.7667230    2.1176346 
C     2.0757810   -0.6748092   -1.1790423 
C     1.2556408   -1.8793904   -1.7001322 
H     2.7694989   -1.0035073   -0.3730616 
H     2.7286105   -0.2870163   -1.9958078 
C     2.1461406   -2.8822038   -2.4263298 
O     2.0836278   -2.9545866   -3.8123523 
O     3.0774767   -3.6753120   -1.7557588 
H     3.0286340   -3.5463997   -0.7582974 
N     0.4920165   -2.5111160   -0.6064364 
H     0.5428762   -1.5264925   -2.4837651 
H     1.0866107   -2.6313552    0.2466625 
H    -0.3092456   -1.8928271   -0.3361925 
