24
Energy =
C    -0.0793906    2.4193951   -0.5021468 
C     0.3644968    2.4219698    0.7830578 
C     1.2266147    1.4639439    1.1934093 
C     0.3442460    1.4644171   -1.3689744 
C     1.2195076    0.5067682   -0.9597314 
C     1.6531273    0.5074062    0.3304829 
O    -0.0509223    3.3936133    1.7004704 
H    -0.7051222    4.0719711    1.3277439 
H     2.3336134   -0.2639622    0.6847245 
H    -0.0282895    1.4585264   -2.3898064 
H    -0.7771863    3.1790792   -0.8339462 
H     1.5675746    1.4662724    2.2235157 
C     1.6766044   -0.5712588   -1.9205049 
C     0.6636461   -1.7286759   -2.0501091 
H     2.6585972   -0.9827454   -1.5918168 
H     1.8613673   -0.1246051   -2.9220079 
C     0.4100909   -2.4225841   -0.7083994 
O     1.1861409   -3.5215516   -0.3631125 
O    -0.5536462   -1.9729967    0.1926623 
H    -0.9956642   -1.1335929   -0.1517702 
N    -0.5716135   -1.2323275   -2.6877856 
H     1.1224561   -2.5140583   -2.6979847 
H    -0.3638012   -0.9909038   -3.6857476 
H    -1.2733450   -2.0120123   -2.7288398 
