24
Energy =
C     1.1947770    2.5132408   -0.2724260 
C     0.0175603    2.5871281    0.4040768 
C    -0.5917079    1.4508167    0.8111117 
C     1.7560414    1.3057671   -0.5346981 
C     1.1468301    0.1605178   -0.1203944 
C    -0.0341897    0.2404849    0.5524378 
O    -0.5869208    3.8144904    0.6937388 
H    -0.0764375    4.6181491    0.3440873 
H    -0.5419262   -0.6640272    0.8802419 
H     2.6924071    1.2605308   -1.0860799 
H     1.6885095    3.4188736   -0.6078282 
H    -1.5338657    1.5253909    1.3433549 
C     1.7667015   -1.1891256   -0.4240714 
C     1.2462660   -1.8165072   -1.7358674 
H     1.5746939   -1.8880448    0.4214176 
H     2.8727769   -1.0895963   -0.4927387 
C    -0.2496070   -2.1015860   -1.6965859 
O    -1.0818495   -1.7228420   -2.7430642 
O    -0.7926118   -2.8000943   -0.6260536 
H    -1.7781286   -2.9465318   -0.8084755 
N     1.6584165   -0.9789349   -2.8789382 
H     1.7162321   -2.8213748   -1.8377761 
H     1.4261173   -1.4853443   -3.7674533 
H     1.0633973   -0.1154620   -2.9024149 
