24
Energy =
C    -0.1644461    2.3737988   -1.8569277 
C    -0.7342820    2.6814191   -0.6693831 
C    -0.4162864    1.9724346    0.4377889 
C     0.7342180    1.3608485   -1.9401570 
C     1.0682788    0.6465853   -0.8276356 
C     0.4842211    0.9595462    0.3634523 
O    -1.6536613    3.7222634   -0.5885236 
H    -1.1847567    4.6043362   -0.4149217 
H     0.7240490    0.3939588    1.2607394 
H     1.1798626    1.1252523   -2.9026575 
H    -0.4392086    2.9410233   -2.7393178 
H    -0.8934838    2.2165107    1.3813124 
C     2.0666489   -0.4913901   -0.9175943 
C     1.4058994   -1.8799533   -1.1008764 
H     2.6960735   -0.5053762    0.0011837 
H     2.7719500   -0.3114143   -1.7584509 
C     0.6220503   -2.3075344    0.1288364 
O    -0.7188914   -1.9689094    0.2824098 
O     1.2735873   -2.9707186    1.1608579 
H     0.6026192   -3.1779164    1.8898682 
N     0.5962972   -1.9328922   -2.3332143 
H     2.2189331   -2.6369004   -1.1867380 
H    -0.2755167   -1.3606765   -2.2151238 
H     1.1330310   -1.5413733   -3.1413749 
