24
Energy =
C    -0.7238517    1.1782969    1.0325324 
C     0.1292786    2.2370821    1.0478153 
C     1.3476622    2.1220828    0.4720215 
C    -0.3540872    0.0130544    0.4437383 
C     0.8740841   -0.1049108   -0.1322140 
C     1.7227248    0.9590679   -0.1187019 
O    -0.2205370    3.4526061    1.6447331 
H    -1.1469074    3.4578882    2.0578067 
H     2.7051272    0.8868912   -0.5787039 
H    -1.0495033   -0.8229950    0.4333316 
H    -1.7041433    1.2611047    1.4891708 
H     2.0175675    2.9748770    0.4900981 
C     1.2847346   -1.3954983   -0.8054131 
C     1.1033521   -1.3363717   -2.3386768 
H     0.6975654   -2.2542280   -0.4056323 
H     2.3468709   -1.6151190   -0.5529374 
C     1.8180168   -2.4912080   -3.0261720 
O     2.3041517   -2.3290437   -4.3180165 
O     1.9864590   -3.7163870   -2.3916430 
H     2.4450521   -4.3488224   -3.0339926 
N    -0.3348039   -1.3342679   -2.6580722 
H     1.5830441   -0.4116596   -2.7371415 
H    -0.7477948   -0.4174702   -2.3668334 
H    -0.4538133   -1.3770538   -3.6989293 
