24
Energy =
C     1.1571632    2.4905378    0.1084245 
C    -0.0915541    2.4786745    0.6470303 
C    -0.7509718    1.3056259    0.7795592 
C     1.7390865    1.3311385   -0.2910346 
C     1.0799409    0.1480978   -0.1477700 
C    -0.1735919    0.1434369    0.3831678 
O    -0.7196837    3.6548350    1.0692303 
H    -0.1636720    4.4918325    0.9319000 
H    -0.7244445   -0.7880357    0.4838882 
H     2.7347115    1.3575149   -0.7275765 
H     1.6915874    3.4273337   -0.0069782 
H    -1.7494472    1.3104553    1.2025578 
C     1.7189092   -1.1420497   -0.6135628 
C     1.3596516   -1.4510181   -2.0793387 
H     1.3999311   -1.9875915    0.0366500 
H     2.8248050   -1.0689051   -0.5029188 
C     2.2304659   -2.5690940   -2.6247685 
O     2.1082949   -3.8634849   -2.1304294 
O     3.1827124   -2.2959703   -3.5972901 
H     3.6672595   -3.1526927   -3.8338388 
N    -0.0785175   -1.7652352   -2.1742048 
H     1.5873833   -0.5550252   -2.7044136 
H    -0.3445497   -1.8278865   -3.1857413 
H    -0.2608051   -2.7136738   -1.7632874 
