24
Energy =
C    -0.4003958    2.1931567   -1.5293398 
C    -0.3142604    2.7078099   -0.2816062 
C     0.4835972    2.1051305    0.6402277 
C     0.3032193    1.0826262   -1.8654548 
C     1.1066285    0.4779480   -0.9478156 
C     1.1899283    0.9943479    0.3094527 
O    -1.0556269    3.8530788    0.0266889 
H    -0.9369904    4.1780523    0.9800544 
H     1.8180917    0.5200480    1.0591478 
H     0.2184597    0.6821545   -2.8725960 
H    -1.0413603    2.6815339   -2.2553483 
H     0.5568405    2.5090631    1.6442488 
C     1.8783209   -0.7697472   -1.3186952 
C     0.9872339   -2.0390842   -1.3057909 
H     2.7488572   -0.9144463   -0.6405442 
H     2.3161152   -0.6225747   -2.3332139 
C     1.7100798   -3.2556842   -1.8954207 
O     2.7742486   -3.0731593   -2.7709696 
O     1.2708181   -4.5546219   -1.6506003 
H     0.4995643   -4.5509923   -0.9989039 
N     0.4984912   -2.3050647    0.0625427 
H     0.1163168   -1.8786474   -1.9832952 
H     1.2946168   -2.2997179    0.7457560 
H    -0.1724061   -1.5543736    0.3549245 
