24
Energy =
C     1.0648555    2.6232910   -0.6658200 
C     0.7525016    2.5251893    0.6468526 
C     0.7962129    1.3223844    1.2651647 
C     1.4167157    1.5162015   -1.3675078 
C     1.4650849    0.3020617   -0.7511759 
C     1.1470522    0.2103718    0.5698400 
O     0.3919523    3.6619470    1.3630258 
H    -0.6099454    3.8122931    1.3180416 
H     1.1756372   -0.7501833    1.0780187 
H     1.6561033    1.6084005   -2.4251540 
H     1.0319741    3.5945990   -1.1476241 
H     0.5514637    1.2589209    2.3203739 
C     1.8290309   -0.9392497   -1.5354094 
C     0.5807919   -1.6902944   -2.0403867 
H     2.4415510   -1.6142145   -0.8976574 
H     2.4740781   -0.6783932   -2.4074156 
C    -0.2678535   -0.8171001   -2.9569840 
O     0.2479879   -0.3171342   -4.1461528 
O    -1.5543194   -0.4579345   -2.5745143 
H    -1.4983625    0.2937620   -1.9029254 
N     1.0256058   -2.9200276   -2.7185455 
H    -0.0745281   -1.9523406   -1.1764839 
H     1.4258384   -3.5839565   -2.0144478 
H     0.1993250   -3.4047115   -3.1454073 
