24
Energy =
C     0.0953482    2.3806285   -1.0365270 
C     0.3208356    2.5792824    0.2894135 
C     0.9837169    1.6403904    1.0019629 
C     0.5395178    1.2500089   -1.6429018 
C     1.2140381    0.3073629   -0.9291780 
C     1.4266087    0.5069404    0.4014335 
O    -0.1173917    3.7357806    0.9429009 
H    -0.6290418    4.3821575    0.3532577 
H     1.9422772   -0.2433689    0.9965618 
H     0.3393225    1.0917160   -2.6993381 
H    -0.4455017    3.1242707   -1.6102195 
H     1.1503185    1.8019554    2.0619937 
C     1.6964300   -0.9642422   -1.6018174 
C     0.5612837   -1.9857132   -1.8218274 
H     2.4967503   -1.4406051   -0.9912454 
H     2.1632783   -0.7129163   -2.5785334 
C    -0.1257655   -2.3508205   -0.5072285 
O    -1.5126762   -2.3835749   -0.3967029 
O     0.6443131   -2.7352677    0.5852414 
H     0.0253860   -2.9606249    1.3539492 
N    -0.3615175   -1.4627227   -2.8503311 
H     1.0131354   -2.9402202   -2.1775722 
H     0.0812640   -1.5725706   -3.7925772 
H    -1.2326257   -2.0482634   -2.8721595 
