24
Energy =
C    -0.9324185    0.8828843    0.7631134 
C    -0.8282985    2.1460618    0.2910857 
C     0.2123149    2.4768355   -0.5187714 
C    -0.0065708   -0.0530399    0.4338907 
C     1.0411149    0.2742223   -0.3718082 
C     1.1428161    1.5460197   -0.8489890 
O    -1.8025974    3.0817597    0.6534332 
H    -1.6677971    4.0016671    0.2478344 
H     1.9657894    1.8263971   -1.5027498 
H    -0.1113700   -1.0642463    0.8187594 
H    -1.7691032    0.6297709    1.4057269 
H     0.3005902    3.4856372   -0.9065253 
C     2.0612245   -0.7773771   -0.7551214 
C     1.5738613   -1.6595780   -1.9214577 
H     2.2760941   -1.4167368    0.1293573 
H     3.0356919   -0.3100748   -1.0279133 
C     1.4318457   -0.8700783   -3.2308138 
O     2.2802900    0.1994433   -3.5064144 
O     0.5057396   -1.2630665   -4.2000019 
H    -0.0359691   -2.0718216   -3.9225906 
N     2.5143274   -2.7898617   -2.0587084 
H     0.5541294   -2.0437159   -1.6776446 
H     2.3466776   -3.4753249   -1.2849700 
H     2.3291278   -3.3097892   -2.9551486 
