24
Energy =
C    -0.5500962    2.4390408   -0.7204270 
C    -0.6018827    2.3116279    0.6247866 
C     0.1987316    1.4042723    1.2449587 
C     0.2910175    1.6669649   -1.4520761 
C     1.0940026    0.7556067   -0.8367632 
C     1.0447668    0.6314030    0.5180896 
O    -1.4867326    3.1226214    1.3436075 
H    -1.4714262    2.9686228    2.3460918 
H     1.6743191   -0.0961197    1.0271169 
H     0.3155496    1.7832140   -2.5325878 
H    -1.1913720    3.1664777   -1.2053018 
H     0.1614585    1.2929167    2.3228507 
C     2.0293326   -0.1163171   -1.6484232 
C     1.4291050   -1.4862612   -2.0414401 
H     2.9713113   -0.2787594   -1.0760418 
H     2.3335581    0.4193139   -2.5768608 
C     1.0026627   -2.3398669   -0.8428006 
O     1.8804708   -3.3042304   -0.3662866 
O    -0.2199772   -2.1766498   -0.1917118 
H    -0.7331953   -1.3890817   -0.5519192 
N     0.3775021   -1.3057615   -3.0608393 
H     2.2555991   -2.0721717   -2.5106532 
H    -0.0220046   -2.2387734   -3.3260315 
H    -0.4122723   -0.7298321   -2.6904941 
