24
Energy =
C    -0.2699245    1.2229067    1.1683588 
C    -0.3425378    2.4006014    0.5060222 
C     0.3290035    2.5658265   -0.6564981 
C     0.4860398    0.2082764    0.6761755 
C     1.1793843    0.3728124   -0.4848442 
C     1.0886231    1.5570555   -1.1540733 
O    -1.1159104    3.4385644    1.0157718 
H    -0.5724768    4.0135985    1.6496770 
H     1.6129308    1.6993092   -2.0973563 
H     0.5286558   -0.7346308    1.2152663 
H    -0.8286114    1.0994186    2.0898885 
H     0.2465299    3.5073882   -1.1895065 
C     2.0070428   -0.7645939   -1.0456659 
C     1.1752590   -1.6816933   -1.9752423 
H     2.4226295   -1.3656914   -0.2067815 
H     2.8816081   -0.3628154   -1.6077121 
C     0.6717356   -0.9312840   -3.1987790 
O    -0.6781492   -0.9481586   -3.5229463 
O     1.5523294   -0.2218830   -4.0067038 
H     1.9486641   -0.8720018   -4.6702935 
N     1.9660055   -2.8643193   -2.3834951 
H     0.2608419   -2.0088710   -1.4245208 
H     2.9268464   -2.8773019   -1.9661107 
H     1.4851539   -3.7387845   -2.0637784 
