24
Energy =
C    -0.3343933    2.3815914   -0.6073018 
C     0.2954672    2.8090510   -1.7337451 
C     1.2864929    2.0616625   -2.2697782 
C     0.0285851    1.2106598   -0.0251319 
C     1.0236435    0.4532217   -0.5667754 
C     1.6537116    0.8896263   -1.6924485 
O    -0.0541154    4.0100438   -2.3589454 
H    -0.8038519    4.5139477   -1.8975324 
H     2.4565583    0.3062282   -2.1352758 
H    -0.4858474    0.8850425    0.8754829 
H    -1.1292616    2.9754982   -0.1690449 
H     1.7824073    2.4164353   -3.1668762 
C     1.4353001   -0.8570433    0.0779234 
C     1.0611500   -2.0983730   -0.7856513 
H     0.9805423   -0.9659669    1.0895404 
H     2.5346508   -0.7971624    0.2180480 
C     1.5137572   -3.4493407   -0.2036760 
O     0.9034937   -4.6096411   -0.6664197 
O     2.5793326   -3.5991449    0.6905889 
H     3.0471106   -2.7442911    0.9282963 
N    -0.3967626   -2.1349367   -1.0433246 
H     1.6095135   -2.0238541   -1.7527011 
H    -0.9185072   -1.3076416   -0.6742343 
H    -0.5783781   -2.1827167   -2.0738694 
