24
Energy =
C     0.8587983    2.5803375   -1.5572454 
C     1.0265575    2.9171894   -0.2507115 
C     1.3978796    1.9707538    0.6413506 
C     1.0654895    1.3024077   -1.9640573 
C     1.4462575    0.3502592   -1.0674959 
C     1.6042922    0.6904355    0.2407889 
O     0.8212887    4.2241795    0.2017680 
H     0.5420935    4.8743596   -0.5251950 
H     1.8958312   -0.0574055    0.9743128 
H     0.9162458    1.0461126   -3.0116123 
H     0.5554567    3.3309189   -2.2793552 
H     1.5244172    2.2526159    1.6811592 
C     1.6471044   -1.0821011   -1.5116089 
C     0.3684025   -1.9215386   -1.3373130 
H     2.4698786   -1.5467022   -0.9233037 
H     1.9752134   -1.1182615   -2.5758560 
C    -0.7700284   -1.4046942   -2.2051907 
O    -0.6354778   -1.3649480   -3.5870299 
O    -1.9332481   -0.9231810   -1.6217962 
H    -1.7747151    0.0201565   -1.2978102 
N     0.6948338   -3.3285536   -1.6268079 
H     0.0201944   -1.8405467   -0.2805664 
H    -0.1379103   -3.9231637   -1.3980048 
H     0.8556851   -3.4459082   -2.6580556 
