24
Energy =
C    -0.0464712    2.3001799   -1.6485523 
C    -0.5395382    2.6155132   -0.4285626 
C    -0.1847807    1.8860206    0.6541360 
C     0.7993364    1.2481217   -1.7915431 
C     1.1624388    0.5100328   -0.7056941 
C     0.6610790    0.8329706    0.5194498 
O    -1.4067745    3.6940467   -0.2859914 
H    -2.3688250    3.4004844   -0.4143121 
H     0.9309778    0.2497015    1.3969303 
H     1.1856312    1.0041225   -2.7782109 
H    -0.3324908    2.8995232   -2.5061090 
H    -0.5817310    2.1532330    1.6279479 
C     2.0926054   -0.6720752   -0.8663771 
C     1.3477138   -1.9429089   -1.3228016 
H     2.6227617   -0.8930706    0.0882301 
H     2.8872551   -0.4144600   -1.6023498 
C     2.3284300   -3.0378025   -1.7202644 
O     1.9074760   -4.0694258   -2.5511119 
O     3.6380795   -3.0369175   -1.2512700 
H     4.1107466   -3.8596293   -1.6036527 
N     0.4490170   -2.3930050   -0.2441966 
H     0.7583972   -1.7170502   -2.2421389 
H    -0.3847042   -1.7610181   -0.2117112 
H     0.0695134   -3.3410939   -0.4862962 
