24
Energy =
C     0.0210199    1.6803002    1.0710135 
C     0.3014330    2.7327428    0.2682751 
C     1.0084224    2.5463380   -0.8699253 
C     0.4550378    0.4368534    0.7425396 
C     1.1753451    0.2429619   -0.3975345 
C     1.4460124    1.3059422   -1.2053940 
O    -0.1460288    4.0056653    0.6077874 
H     0.5349320    4.4814695    1.1892946 
H     2.0103526    1.1700300   -2.1250224 
H     0.2162519   -0.3995180    1.3945397 
H    -0.5585146    1.8426187    1.9732329 
H     1.2157519    3.3965603   -1.5113341 
C     1.6477353   -1.1417342   -0.7806370 
C     0.7593298   -1.7808150   -1.8754761 
H     1.6823797   -1.8098872    0.1099235 
H     2.6982727   -1.0707316   -1.1451196 
C     1.4038091   -3.0413406   -2.4204231 
O     1.5248116   -4.1766920   -1.6247138 
O     1.9581940   -3.0401900   -3.6945408 
H     2.3369805   -3.9588320   -3.8865460 
N    -0.5942969   -2.0541846   -1.3589472 
H     0.6847618   -1.0938477   -2.7505725 
H    -0.5395053   -2.6518866   -0.4994360 
H    -1.0688397   -1.1575630   -1.1004605 
