24
Energy =
C    -0.1443942    1.5113211    1.1247508 
C     0.0478062    2.5914588    0.3334052 
C     0.8010531    2.4857498   -0.7849975 
C     0.4097107    0.3167372    0.7952493 
C     1.1638771    0.1997816   -0.3340108 
C     1.3583437    1.2946793   -1.1217284 
O    -0.5207850    3.8141846    0.6750975 
H    -1.4516656    3.8994054    0.2815672 
H     1.9628589    1.2257564   -2.0225699 
H     0.2465928   -0.5408333    1.4426257 
H    -0.7408546    1.6147423    2.0247453 
H     0.9565255    3.3628825   -1.4045945 
C     1.7819400   -1.1289996   -0.7152726 
C     1.0486967   -1.7957604   -1.9068794 
H     1.7929187   -1.8328315    0.1486798 
H     2.8508235   -0.9544822   -0.9740842 
C     1.8863311   -2.9336570   -2.4726238 
O     1.9928029   -4.1359401   -1.7872099 
O     2.6206112   -2.7514194   -3.6363915 
H     3.4336404   -2.1889364   -3.4351058 
N    -0.3227131   -2.2238029   -1.5308346 
H     0.9658630   -1.0686681   -2.7474091 
H    -0.4284145   -3.2670810   -1.5946001 
H    -0.5626647   -1.9802372   -0.5430472 
