24
Energy =
C    -0.9642157    1.7555129    0.2267761 
C    -0.8876127    2.5648744   -0.8538492 
C     0.1088959    2.4001962   -1.7534328 
C    -0.0472458    0.7710312    0.4082194 
C     0.9566575    0.5931116   -0.4965704 
C     1.0293655    1.4175910   -1.5797862 
O    -1.8283304    3.5731600   -1.0356934 
H    -2.6168943    3.2347599   -1.5762418 
H     1.8241234    1.2999069   -2.3116890 
H    -0.1238005    0.1293969    1.2837953 
H    -1.7639681    1.9056466    0.9445195 
H     0.1651274    3.0649403   -2.6092563 
C     1.9757654   -0.5149315   -0.3092284 
C     1.4985267   -1.8939652   -0.8407307 
H     2.2301385   -0.6031005    0.7726410 
H     2.9308144   -0.2421088   -0.8095434 
C     0.3618777   -2.4886529   -0.0040174 
O     0.3560844   -2.2900888    1.3704620 
O    -0.6282149   -3.3013605   -0.5526647 
H    -0.4426916   -3.5239090   -1.5187301 
N     1.1736683   -1.8125527   -2.2790278 
H     2.3332533   -2.6195523   -0.7063915 
H     0.3267167   -1.2089069   -2.4174306 
H     1.9664223   -1.3729898   -2.8024662 
