24
Energy =
C    -0.2520160    2.1296886   -0.6375809 
C     0.2908516    2.5996835    0.5176604 
C     1.3484860    1.9573033    1.0704555 
C     0.2719383    1.0247345   -1.2214440 
C     1.3187648    0.3685741   -0.6681212 
C     1.8682037    0.8478682    0.4803091 
O    -0.2149825    3.7363597    1.1559875 
H    -1.0026742    4.1620810    0.6790948 
H     2.7243096    0.3535889    0.9320155 
H    -0.1252303    0.5149519   -2.2093998 
H    -1.0989109    2.6293698   -1.0944255 
H     1.7753368    2.3464371    1.9885275 
C     1.9080990   -0.8360554   -1.3887131 
C     0.8489243   -1.8052839   -1.9896309 
H     2.5424318   -1.4175963   -0.6821181 
H     2.5797629   -0.4753952   -2.1988314 
C     0.0604816   -1.2204951   -3.1823927 
O    -0.5057089    0.0524464   -3.1332903 
O    -0.1798441   -1.9935012   -4.3053333 
H    -0.7311815   -1.4506166   -4.9584231 
N     1.5362779   -3.0620232   -2.3380533 
H     0.0847837   -2.0207519   -1.2066611 
H     0.8285661   -3.7405771   -2.7138371 
H     2.1836096   -2.8798699   -3.1423506 
