24
Energy =
C    -0.4208757    1.1958496    1.2485785 
C    -0.6448029    2.3424871    0.5668431 
C    -0.0195464    2.5621243   -0.6121754 
C     0.4419367    0.2688402    0.7588131 
C     1.0857712    0.4866670   -0.4226397 
C     0.8433561    1.6391999   -1.1086138 
O    -1.5255396    3.2919538    1.0739522 
H    -1.0435906    3.9383910    1.6885765 
H     1.3294347    1.8229890   -2.0631777 
H     0.6075776   -0.6543526    1.3098975 
H    -0.9460676    1.0255320    2.1825167 
H    -0.2220053    3.4774324   -1.1587699 
C     2.0429065   -0.5501785   -0.9805844 
C     1.3504803   -1.5508995   -1.9319014 
H     2.5313311   -1.1079261   -0.1500709 
H     2.8661832   -0.0412866   -1.5275536 
C     0.3135987   -2.4132642   -1.2130904 
O    -0.7728777   -2.9405481   -1.9035853 
O     0.5072026   -2.7875980    0.1148536 
H    -0.2322505   -3.4256017    0.3852749 
N     0.7906375   -0.8156345   -3.0824944 
H     2.1194623   -2.2704454   -2.2933470 
H     1.5754782   -0.4965563   -3.6963643 
H     0.2135048   -1.4678650   -3.6678791 
