24
Energy =
C    -0.6616697    1.9072961   -1.7747572 
C    -0.3225934    2.6955207   -0.7197532 
C     0.6691774    2.3066875    0.1134615 
C    -0.0059493    0.7385369   -1.9916159 
C     1.0004574    0.3521105   -1.1593582 
C     1.3288543    1.1399322   -0.0993726 
O    -0.9775860    3.9054951   -0.4686997 
H    -1.7116402    4.1237718   -1.1334530 
H     2.1129955    0.8366907    0.5897343 
H    -0.2937810    0.1127151   -2.8331206 
H    -1.4601264    2.2084971   -2.4444060 
H     0.9241367    2.9398015    0.9562145 
C     1.7173978   -0.9604588   -1.3872126 
C     0.9965526   -2.1260945   -0.6852555 
H     2.7671173   -0.8979059   -1.0219715 
H     1.7859236   -1.1615401   -2.4805463 
C     1.5387459   -3.4606976   -1.1699348 
O     2.7424169   -3.9573814   -0.6841184 
O     0.8657682   -4.1620800   -2.1588569 
H     1.3807756   -5.0108596   -2.3574236 
N     1.1144006   -1.9633159    0.7765507 
H    -0.0810023   -2.1142598   -0.9739775 
H     0.5357406   -2.6997425    1.2465063 
H     2.1050980   -2.1497430    1.0687320 
