24
Energy =
C     0.9351055    2.5750483   -1.0241318 
C     0.2584684    2.7757833    0.1299070 
C     0.0815467    1.7531600    0.9974434 
C     1.4450582    1.3505282   -1.3115378 
C     1.2741783    0.3154657   -0.4418001 
C     0.5882135    0.5252858    0.7171334 
O    -0.2625384    4.0323927    0.4216273 
H     0.4175010    4.5962643    0.9196715 
H     0.4383082   -0.2850019    1.4257671 
H     1.9877801    1.2038407   -2.2418469 
H     1.0597444    3.4015014   -1.7152791 
H    -0.4716236    1.9257350    1.9147745 
C     1.8391980   -1.0517317   -0.7669700 
C     1.0391572   -1.7746941   -1.8830506 
H     1.8784933   -1.6981169    0.1391859 
H     2.8987739   -0.9259003   -1.0878639 
C     1.7861069   -3.0078758   -2.4016450 
O     2.7642943   -3.6132848   -1.6211264 
O     1.4693582   -3.5731899   -3.6356662 
H     0.7001618   -3.0936725   -4.0816953 
N    -0.3412353   -2.0928142   -1.4430400 
H     0.9718208   -1.0890558   -2.7570690 
H    -0.5350153   -3.1229801   -1.4938620 
H    -0.5158274   -1.8231745   -0.4475124 
