24
Energy =
C     0.5304170    0.6908733    1.7543587 
C     0.5579444    2.0002758    1.3880908 
C     0.9318109    2.3352739    0.1321522 
C     0.8794826   -0.2735893    0.8652682 
C     1.2631633    0.0635416   -0.3970853 
C     1.2813544    1.3750421   -0.7609971 
O     0.2057969    3.0183302    2.2803344 
H    -0.0692189    2.6850987    3.1976700 
H     1.5720752    1.6625139   -1.7688665 
H     0.8401736   -1.3182092    1.1653316 
H     0.2255307    0.4122211    2.7572672 
H     0.9444027    3.3824870   -0.1492939 
C     1.6391240   -1.0075041   -1.3981299 
C     0.4704414   -1.3616309   -2.3398234 
H     1.9787856   -1.9313172   -0.8803042 
H     2.5111006   -0.6500231   -1.9928391 
C     0.9981537   -2.1672296   -3.5260269 
O     1.8268378   -1.5469759   -4.4453128 
O     0.7344411   -3.5189474   -3.6882375 
H     0.0153397   -3.7407667   -3.0138155 
N    -0.5685119   -2.0822456   -1.5792762 
H     0.0396643   -0.4303862   -2.7778484 
H    -1.0067854   -1.4178946   -0.8922732 
H    -1.3418018   -2.3222278   -2.2395468 
