24
Energy =
C    -0.1984633    2.0326701   -0.0216167 
C    -1.0660076    1.3009444    0.7149623 
C    -0.8770067   -0.0308659    0.8580334 
C     0.8723741    1.4366636   -0.6050955 
C     1.0784258    0.0985757   -0.4529329 
C     0.1894529   -0.6347145    0.2740824 
O    -2.1591458    1.9151729    1.3176268 
H    -1.9271966    2.2236599    2.2552132 
H     0.3242953   -1.7070442    0.3859211 
H     1.5538783    2.0352028   -1.2064205 
H    -0.3740299    3.0958117   -0.1471695 
H    -1.5920043   -0.6078764    1.4349405 
C     2.2575490   -0.5736115   -1.1239711 
C     1.8750626   -1.1622753   -2.5015749 
H     2.6483050   -1.3786153   -0.4642539 
H     3.0915167    0.1543918   -1.2522643 
C     1.4221613   -0.0808137   -3.4665658 
O     2.2942317    0.9341663   -3.8487592 
O     0.1152638   -0.0676751   -3.9339634 
H     0.0034719    0.7199066   -4.5589486 
N     3.0111974   -1.9244512   -3.0500964 
H     1.0006722   -1.8455589   -2.3932739 
H     3.8130702   -1.2740930   -3.2421208 
H     3.3349760   -2.6462128   -2.3653886 
