24
Energy =
C    -0.2469650    0.7436266    1.3587667 
C    -0.3886335    2.0197585    0.9314774 
C     0.2705973    2.4411551   -0.1720685 
C     0.5503074   -0.1190995    0.6785350 
C     1.2190550    0.2989861   -0.4318333 
C     1.0699728    1.5847327   -0.8568699 
O    -1.2084877    2.9005846    1.6304701 
H    -2.1627062    2.8467990    1.2901734 
H     1.5821778    1.9327125   -1.7509247 
H     0.6483104   -1.1439566    1.0272800 
H    -0.7771390    0.4217059    2.2483481 
H     0.1499183    3.4667686   -0.5041455 
C     2.0813124   -0.6686566   -1.2119126 
C     1.2579636   -1.4504341   -2.2557148 
H     2.5584934   -1.3931372   -0.5126567 
H     2.9227362   -0.1294111   -1.6995403 
C     0.6184003   -0.5482380   -3.3145263 
O    -0.7637108   -0.5431029   -3.4489119 
O     1.3760125    0.2681557   -4.1550256 
H     2.3630416    0.1791017   -3.9742350 
N     2.1123873   -2.5017123   -2.8372029 
H     0.4031901   -1.9392712   -1.7289521 
H     1.5501685   -3.0771517   -3.5108930 
H     2.8949804   -2.0747209   -3.3870830 
