24
Energy =
C     1.0890232    3.0092821   -0.7099196 
C     1.0565783    2.8364516    0.6463128 
C     0.8084355    1.5983299    1.1384731 
C     0.8911034    1.9354191   -1.5612247 
C     0.6525177    0.7102811   -1.0410059 
C     0.6046740    0.5462294    0.3110231 
O     1.3242866    3.9163038    1.5217647 
H     2.2352794    3.7440326    1.9091122 
H     0.4207721   -0.4215213    0.7480006 
H     0.8783295    2.0102895   -2.6594905 
H     1.2823991    4.0023944   -1.1062660 
H     0.7839253    1.4431333    2.2129095 
C     0.4704551   -0.3983497   -2.0530950 
C     0.4454508   -1.8926028   -1.5632220 
H     1.3531603   -0.3122347   -2.7011145 
H    -0.4276691   -0.1809440   -2.6633480 
C    -0.8360180   -2.2793979   -0.7834791 
O    -0.7450781   -2.7447705    0.5398501 
O    -2.1102150   -2.2634186   -1.3737272 
H    -1.9805645   -1.9401357   -2.3222701 
N     0.7133859   -2.8116802   -2.7155992 
H     1.2686215   -1.9972324   -0.8289146 
H     0.3250482   -2.3827598   -3.5884634 
H     1.7474869   -2.9165272   -2.8381507 
