24
Energy =
C    -0.3404305    0.5568116    1.4176070 
C    -0.4529452    1.8651716    1.0937190 
C     0.2643545    2.3631450    0.0514334 
C     0.4827216   -0.2585003    0.7110055 
C     1.2102943    0.2376172   -0.3265523 
C     1.0916963    1.5531917   -0.6563392 
O    -1.3117965    2.6731063    1.8467740 
H    -1.3589110    3.6360621    1.5321563 
H     1.6512070    1.9621807   -1.4948254 
H     0.5530261   -1.3088604    0.9805546 
H    -0.9217747    0.1696203    2.2473414 
H     0.1738543    3.4085950   -0.2204982 
C     2.1070574   -0.6748820   -1.1338309 
C     1.3382525   -1.3654674   -2.2809377 
H     2.5512990   -1.4432092   -0.4621191 
H     2.9698647   -0.1043120   -1.5461662 
C     0.7788702   -0.3510506   -3.2822023 
O    -0.5911101   -0.1212337   -3.3250742 
O     1.6099288    0.3736859   -4.1364160 
H     2.5691611    0.0724262   -4.0378555 
N     2.2407158   -2.3325025   -2.9308859 
H     0.4555226   -1.9021408   -1.8576220 
H     2.4996086   -3.0814235   -2.2450606 
H     1.7272163   -2.8204460   -3.7044834 
