24
Energy =
C    -0.2315271    1.6898684    0.9536220 
C    -0.4924121    2.5826581   -0.0290238 
C     0.0447217    2.4117203   -1.2588055 
C     0.5758843    0.6257723    0.7121794 
C     1.1275217    0.4521854   -0.5214425 
C     0.8532826    1.3503500   -1.5081093 
O    -1.3215780    3.6714120    0.2220801 
H    -0.7842421    4.4583680    0.5688237 
H     1.2759566    1.2236682   -2.5019660 
H     0.7706321   -0.0858470    1.5104379 
H    -0.6801008    1.8325213    1.9306630 
H    -0.1819941    3.1279367   -2.0416540 
C     2.0138564   -0.7399135   -0.8048876 
C     1.2716987   -1.8547711   -1.5818241 
H     2.4313410   -1.1607713    0.1387648 
H     2.8941400   -0.3973058   -1.3947424 
C     2.2418257   -2.9329063   -2.0329165 
O     2.3534653   -3.2563108   -3.3809109 
O     3.0578193   -3.5761715   -1.1073849 
H     3.6151761   -4.2688375   -1.5905224 
N     0.1885304   -2.4306398   -0.7653348 
H     0.8365839   -1.4316820   -2.5165706 
H     0.5715140   -2.7742784    0.1478555 
H    -0.5354773   -1.7024058   -0.5622777 
