24
Energy =
C     0.7426173    2.4843926   -0.6934506 
C     0.0466605    2.4935488    0.4746215 
C    -0.1069024    1.3440559    1.1703306 
C     1.2801277    1.3282011   -1.1579693 
C     1.1276379    0.1703446   -0.4574353 
C     0.4279244    0.1844532    0.7105399 
O    -0.5207429    3.6668178    0.9813328 
H    -0.3625849    4.4858965    0.4041153 
H     0.2899752   -0.7288049    1.2837842 
H     1.8328758    1.3359544   -2.0945883 
H     0.8701910    3.4012259   -1.2590133 
H    -0.6649322    1.3659270    2.1003288 
C     1.7167059   -1.1199289   -0.9840279 
C     0.9000717   -1.7051241   -2.1607761 
H     1.8019787   -1.8820158   -0.1762376 
H     2.7612924   -0.9220471   -1.3178047 
C     1.6640292   -2.8398218   -2.8158171 
O     2.1943687   -2.6817297   -4.0904419 
O     1.9053969   -4.0171358   -2.1173133 
H     2.4221518   -4.6481268   -2.7167060 
N    -0.4275893   -2.1562264   -1.7055251 
H     0.7711199   -0.9335667   -2.9551671 
H    -0.3156719   -2.9167873   -0.9910520 
H    -0.9540928   -1.3660791   -1.2671370 
