24
Energy =
C     0.0695735    1.6105721    1.1728110 
C    -0.4424006    2.5109838    0.3023056 
C    -0.1558046    2.4162738   -1.0163531 
C     0.8652888    0.6056899    0.7258313 
C     1.1577176    0.5032892   -0.6007980 
C     0.6391520    1.4141472   -1.4709219 
O    -1.2577101    3.5393052    0.7640412 
H    -2.2291378    3.2486828    0.7792398 
H     0.8608668    1.3478847   -2.5334346 
H     1.2675498   -0.1117723    1.4359488 
H    -0.1601502    1.7057164    2.2285122 
H    -0.5648663    3.1506198   -1.7024826 
C     2.0295103   -0.6229172   -1.1104294 
C     1.1914248   -1.7708919   -1.7247264 
H     2.6803812   -1.0146851   -0.2967290 
H     2.7251523   -0.2144183   -1.8801044 
C     2.0749069   -2.7755496   -2.4617414 
O     2.0848723   -2.7714053   -3.8515648 
O     2.9297978   -3.6493963   -1.7889063 
H     2.8245470   -3.5741446   -0.7899294 
N     0.3560681   -2.4219167   -0.6967193 
H     0.5265314   -1.3502614   -2.5161551 
H     0.8988572   -2.5784091    0.1847436 
H    -0.4444501   -1.7922970   -0.4508465 
