24
Energy =
C     0.6706718    2.5457950   -0.3944165 
C    -0.4959273    2.4061982    0.2762639 
C    -0.9237033    1.1761566    0.6422157 
C     1.4126191    1.4531209   -0.7067203 
C     0.9907300    0.2111273   -0.3387457 
C    -0.1866711    0.0780635    0.3332027 
O    -1.2548405    3.5273506    0.5952923 
H    -1.9221107    3.7273106   -0.1422611 
H    -0.5452953   -0.9070386    0.6194082 
H     2.3385894    1.5795132   -1.2638039 
H     1.0014617    3.5377980   -0.6825199 
H    -1.8608260    1.0817014    1.1811851 
C     1.7984566   -1.0128269   -0.7153579 
C     1.2627537   -1.6852176   -2.0019842 
H     1.7764924   -1.7422328    0.1239414 
H     2.8682120   -0.7391703   -0.8665620 
C     1.2879800   -0.7232177   -3.1814998 
O     2.4963101   -0.2972332   -3.7224900 
O     0.0982443   -0.2217667   -3.6916207 
H     0.3116333    0.3962952   -4.4640373 
N     1.9901270   -2.9511329   -2.2712611 
H     0.1847005   -1.9304557   -1.8650431 
H     2.5208561   -2.8954687   -3.1757457 
H     2.7075881   -3.1682902   -1.5404967 
