24
Energy =
C     0.1429634    1.3237836    1.1999698 
C     0.6574451    2.5010074    0.7540206 
C     1.4659209    2.5086916   -0.3298443 
C     0.4406887    0.1641312    0.5611312 
C     1.2558391    0.1701577   -0.5296214 
C     1.7697438    1.3514536   -0.9696232 
O     0.3736957    3.7136044    1.3919365 
H    -0.2543752    3.6244348    2.1828241 
H     2.4134003    1.3797500   -1.8452341 
H     0.0232098   -0.7705940    0.9264444 
H    -0.5073807    1.3065145    2.0674989 
H     1.8630476    3.4538824   -0.6817789 
C     1.5863896   -1.1292776   -1.2345987 
C     0.4179983   -1.6771686   -2.0851555 
H     1.8671051   -1.8817221   -0.4647038 
H     2.4830046   -1.0339043   -1.8868812 
C     0.2598316   -0.9291529   -3.4220773 
O     0.6211399    0.4049154   -3.5187668 
O    -0.3835665   -1.4840321   -4.5158194 
H    -0.2267960   -2.4780936   -4.4214253 
N     0.6414470   -3.1311557   -2.2158158 
H    -0.5414585   -1.5019952   -1.5504059 
H    -0.1045487   -3.6939521   -1.7296763 
H     0.7972962   -3.4601604   -3.1887142 
