24
Energy =
C     0.4120941    2.3800819   -1.7988255 
C    -0.3668378    2.7296710   -0.7404900 
C    -0.4150224    1.9279589    0.3475533 
C     1.1369449    1.2334373   -1.7628258 
C     1.0915531    0.4273937   -0.6664715 
C     0.3073935    0.7796948    0.3891335 
O    -1.1275924    3.9031838   -0.7452343 
H    -1.0353494    4.4513496   -1.5937221 
H     0.2511612    0.1478311    1.2716417 
H     1.7530284    0.9651412   -2.6180647 
H     0.4561601    3.0156623   -2.6767100 
H    -1.0411710    2.2186380    1.1840981 
C     1.8865061   -0.8589036   -0.6363210 
C     1.2182207   -1.9790654   -1.4688149 
H     2.0421124   -1.2073016    0.4098859 
H     2.9064184   -0.6566635   -1.0391937 
C     2.1418883   -3.1788169   -1.5859720 
O     3.0233898   -3.2701859   -2.6538881 
O     2.1849507   -4.1451343   -0.5900940 
H     1.4434405   -4.8072184   -0.7647694 
N    -0.0836523   -2.3604500   -0.8926017 
H     1.0612829   -1.6200343   -2.5123767 
H     0.0189206   -2.5485475    0.1332332 
H    -0.7593168   -1.5677892   -1.0015258 
