24
Energy =
C    -0.4071429    1.9365062    0.3333753 
C    -0.0293511    2.8332762   -0.6065909 
C     0.9339713    2.5117028   -1.5004618 
C     0.1869241    0.7176003    0.3905902 
C     1.1677130    0.3916507   -0.4964666 
C     1.5316443    1.2937583   -1.4505772 
O    -0.6392328    4.0827406   -0.6617798 
H    -0.1481229    4.7470559   -0.0739090 
H     2.2981696    1.0463178   -2.1809235 
H    -0.1351341   -0.0001464    1.1409101 
H    -1.1942116    2.2000582    1.0311230 
H     1.2162866    3.2340648   -2.2591866 
C     1.8138968   -0.9752693   -0.4524366 
C     1.0218471   -1.9995852   -1.2887184 
H     1.8906828   -1.3319841    0.5995863 
H     2.8606344   -0.9055380   -0.8268071 
C     1.8343257   -3.2619618   -1.5114395 
O     2.1820561   -4.0802474   -0.4429399 
O     2.2638801   -3.5902967   -2.7891006 
H     2.7884499   -4.4552755   -2.7439849 
N    -0.2691490   -2.2742398   -0.6287549 
H     0.8421442   -1.5789845   -2.3073570 
H    -0.8412999   -2.9021670   -1.2431114 
H    -0.0992480   -2.8112864    0.2564306 
