24
Energy =
C     0.7081988    2.5100049   -1.3022372 
C     0.5521140    2.8607906   -0.0050072 
C     0.8006715    1.9609336    0.9739224 
C     1.1052537    1.2530487   -1.6260563 
C     1.3508683    0.3387345   -0.6461729 
C     1.1981877    0.7019128    0.6583636 
O     0.1448163    4.1501244    0.3231425 
H    -0.8668527    4.2081060    0.3597306 
H     1.3965631   -0.0078221    1.4576156 
H     1.2290709    0.9864434   -2.6728532 
H     0.5177824    3.2459132   -2.0758562 
H     0.6836110    2.2587093    2.0106799 
C     1.7891296   -1.0637757   -1.0095774 
C     0.6249698   -1.9093242   -1.5857280 
H     2.2272506   -1.5913803   -0.1311669 
H     2.6116825   -0.9925944   -1.7576277 
C     1.1509978   -3.1830490   -2.2202501 
O     1.9411920   -4.0679976   -1.4926299 
O     0.8869369   -3.4494435   -3.5586404 
H     1.2994102   -4.3413882   -3.8003179 
N    -0.3805522   -2.2249515   -0.5477543 
H     0.1481250   -1.3485255   -2.4245317 
H    -0.1790557   -1.7607447    0.3674768 
H    -1.3225592   -1.8876818   -0.8563578 
