24
Energy =
C    -0.3119989    1.3086928    1.0382292 
C     0.0424634    2.5283903    0.5741452 
C     0.9586351    2.6355991   -0.4146987 
C     0.2584503    0.1901716    0.5225375 
C     1.1809034    0.2871697   -0.4765076 
C     1.5302562    1.5215922   -0.9389146 
O    -0.5374550    3.6735402    1.1115253 
H    -0.0069199    4.0034776    1.9098627 
H     2.2659807    1.6280249   -1.7315601 
H    -0.0373066   -0.7818406    0.9080127 
H    -1.0598577    1.2375182    1.8202574 
H     1.2271390    3.6195262   -0.7847670 
C     1.8244539   -0.9599791   -1.0576097 
C     0.9139420   -1.7522400   -2.0357158 
H     2.1319772   -1.6301729   -0.2226129 
H     2.7662631   -0.6959387   -1.5874927 
C    -0.2796693   -2.3798817   -1.3366416 
O    -1.4937844   -1.7101335   -1.2212447 
O    -0.1324333   -3.6138318   -0.7144492 
H    -1.0229488   -3.8852494   -0.3171171 
N     0.5030127   -0.9392928   -3.2012666 
H     1.5046293   -2.6298703   -2.3900669 
H     0.8859459    0.0325701   -3.1736330 
H     0.8487052   -1.3794904   -4.0856197 
