24
Energy =
C     1.0207844    1.9027587    0.8312974 
C     0.9549710    2.8418216   -0.1503294 
C     1.1007879    2.4695945   -1.4423478 
C     1.2352374    0.6002427    0.5161634 
C     1.3928697    0.2263194   -0.7835153 
C     1.3167850    1.1692209   -1.7630577 
O     0.7385166    4.1925895    0.1404952 
H     0.6246902    4.3896165    1.1289625 
H     1.4202164    0.8875341   -2.8086735 
H     1.2776627   -0.1406837    1.3108422 
H     0.8992847    2.1908452    1.8700196 
H     1.0376147    3.2260336   -2.2169288 
C     1.6078778   -1.2293877   -1.1375788 
C     0.2762738   -1.9865301   -1.2891439 
H     2.2168227   -1.7216840   -0.3468564 
H     2.1959152   -1.3184666   -2.0792685 
C    -0.5534317   -1.4511005   -2.4498599 
O    -1.8534831   -1.0098574   -2.2373316 
O    -0.0210496   -1.4062089   -3.7337697 
H    -0.7273277   -1.0466107   -4.3636886 
N     0.5751516   -3.4220028   -1.4335211 
H    -0.3298673   -1.8349507   -0.3652483 
H    -0.3249794   -3.9580549   -1.4093735 
H     0.9903671   -3.5930208   -2.3831439 
