24
Energy =
C     0.1000791    1.6011743    1.0534985 
C     0.5494542    2.6948171    0.3961481 
C     1.3591109    2.5535757   -0.6783853 
C     0.4564729    0.3597896    0.6353229 
C     1.2750767    0.2093198   -0.4428397 
C     1.7187066    1.3154419   -1.1035565 
O     0.1821487    3.9654837    0.8276570 
H    -0.6800574    4.2584564    0.3815310 
H     2.3627271    1.2182061   -1.9742925 
H     0.0754551   -0.5125349    1.1606904 
H    -0.5470620    1.7302064    1.9142030 
H     1.7156845    3.4391002   -1.1938918 
C     1.6562329   -1.1731656   -0.9255586 
C     0.5950579   -1.7478632   -1.8825476 
H     1.7894942   -1.8602599   -0.0601091 
H     2.6446234   -1.1304523   -1.4372097 
C     1.1312691   -2.9684916   -2.6105489 
O     1.4129937   -4.1389061   -1.9143162 
O     1.3897611   -2.9062078   -3.9727601 
H     1.7426095   -3.8036370   -4.2811314 
N    -0.6366627   -2.0422990   -1.1253412 
H     0.3745253   -0.9932273   -2.6747008 
H    -1.3979631   -2.2850424   -1.8033951 
H    -0.4901984   -2.8973541   -0.5344488 
