24
Energy =
C    -0.2799748    1.0944308    1.2363477 
C     0.0218727    2.3335890    0.7652348 
C     0.8925933    2.4647183   -0.2610225 
C     0.2943748   -0.0040901    0.6831942 
C     1.1789754    0.1269030   -0.3445848 
C     1.4684929    1.3699228   -0.8187357 
O    -0.5476560    3.4860838    1.3158947 
H    -1.2109738    3.3038311    2.0610794 
H     2.1525225    1.4934747   -1.6543702 
H     0.0301762   -0.9910025    1.0562723 
H    -0.9863969    0.9792355    2.0512094 
H     1.1167605    3.4577056   -0.6349270 
C     1.8073018   -1.0992602   -0.9783502 
C     0.9499104   -1.6787148   -2.1182064 
H     1.9766610   -1.8831050   -0.2060287 
H     2.8115873   -0.8423475   -1.3812815 
C    -0.3839043   -2.2015119   -1.5968730 
O    -1.5420062   -1.4334739   -1.6543935 
O    -0.4332115   -3.4430720   -0.9775900 
H    -1.3898838   -3.6339837   -0.7062392 
N     0.8317076   -0.6677845   -3.1919737 
H     1.4723025   -2.5833649   -2.5089307 
H     1.3976743   -0.9669181   -4.0197625 
H    -0.1592346   -0.5783353   -3.5249399 
