24
Energy =
C     0.6342037    2.5610299   -0.8147366 
C    -0.1514733    2.6005526    0.2849832 
C    -0.2751581    1.4921738    1.0624923 
C     1.2971103    1.4244035   -1.1456972 
C     1.1756380    0.3101248   -0.3723830 
C     0.3855074    0.3519438    0.7364165 
O    -0.8180519    3.7907580    0.5930599 
H    -1.3888489    3.7444463    1.4299478 
H     0.2770417   -0.5244348    1.3701315 
H     1.9251293    1.4132768   -2.0328088 
H     0.7258740    3.4517414   -1.4270499 
H    -0.9025011    1.5171291    1.9465519 
C     1.9131306   -0.9588338   -0.7470413 
C     1.2837386   -1.6703680   -1.9742253 
H     1.9582218   -1.6681378    0.1103835 
H     2.9727802   -0.6955190   -0.9696772 
C     2.2032325   -2.7675767   -2.5206547 
O     3.1820516   -3.3288274   -1.7085682 
O     2.0460367   -3.2574769   -3.8160129 
H     1.2628145   -2.8272417   -4.2871318 
N    -0.0786436   -2.1729740   -1.6711669 
H     1.2005201   -0.9263001   -2.7977204 
H    -0.1451094   -3.2117618   -1.8053231 
H    -0.3566070   -2.0002748   -0.6777468 
