24
Energy =
C     0.0657648    2.3175795   -1.1193209 
C     0.6401863    2.9319270   -0.0587022 
C     1.5707375    2.2795994    0.6806516 
C     0.4209194    1.0471827   -1.4283827 
C     1.3354951    0.3756690   -0.6880361 
C     1.9237884    1.0042992    0.3665153 
O     0.2830425    4.2364151    0.2672294 
H    -0.5053047    4.2436743    0.9050402 
H     2.6804560    0.4978714    0.9603748 
H    -0.0234363    0.4082615   -2.3141512 
H    -0.6695444    2.8470452   -1.7148260 
H     2.0353338    2.7892671    1.5183238 
C     1.7462430   -1.0304034   -1.1050781 
C     0.5651052   -1.9294822   -1.5686716 
H     2.2466984   -1.5382041   -0.2499355 
H     2.4989222   -0.9582614   -1.9206468 
C    -0.0655223   -1.4952692   -2.9118539 
O    -0.4463327   -0.1744119   -3.1461134 
O    -0.3210624   -2.4293086   -3.9013158 
H    -0.7611101   -1.9594235   -4.6826333 
N     1.0445435   -3.3227283   -1.5964771 
H    -0.2515868   -1.8496989   -0.8138350 
H     0.2192429   -3.9539518   -1.7363972 
H     1.6387438   -3.4629773   -2.4500829 
