24
Energy =
C    -0.2474239    2.1701606   -0.7773067 
C     0.4585672    2.8020238    0.1892391 
C     1.6272600    2.2749112    0.6297315 
C     0.2172555    1.0058893   -1.2911811 
C     1.3743700    0.4563570   -0.8485421 
C     2.0900553    1.1061714    0.1104705 
O    -0.0094234    3.9980516    0.7237352 
H    -0.6127064    3.8238744    1.5200334 
H     3.0356164    0.7030320    0.4635615 
H    -0.3191122    0.3645786   -2.1226694 
H    -1.1750979    2.6020316   -1.1361525 
H     2.1918694    2.8008111    1.3926495 
C     1.8886870   -0.8262328   -1.4915017 
C     0.7724278   -1.8787690   -1.7882096 
H     2.6497205   -1.2840931   -0.8224515 
H     2.4091946   -0.5650419   -2.4398512 
C    -0.1795738   -1.4549661   -2.9265137 
O    -0.8310172   -0.2217128   -2.9000557 
O    -0.4331939   -2.2990596   -3.9940914 
H    -1.1018857   -1.8541062   -4.6089841 
N     1.3894842   -3.1914045   -2.0550759 
H     0.1138781   -1.9778881   -0.8944669 
H     1.8808615   -3.1710537   -2.9820688 
H     2.0809702   -3.4481837   -1.3134828 
