24
Energy =
C     1.0158743    2.4970359   -0.4311383 
C    -0.0758579    2.5599574    0.3651478 
C    -0.5912615    1.4290058    0.8976538 
C     1.5935726    1.2992736   -0.7032527 
C     1.0802979    0.1534921   -0.1732844 
C    -0.0192206    0.2273004    0.6299437 
O    -0.6657977    3.7886401    0.6425534 
H    -1.3703761    4.0098480   -0.0526720 
H    -0.4499897   -0.6742902    1.0585141 
H     2.4625004    1.2621689   -1.3550049 
H     1.4204882    3.4125930   -0.8485573 
H    -1.4650388    1.4942209    1.5376006 
C     1.7171592   -1.1870539   -0.4911815 
C     1.1884484   -1.8036475   -1.8051568 
H     1.5523256   -1.8997178    0.3477554 
H     2.8191083   -1.0623832   -0.5696005 
C    -0.2963651   -2.1564858   -1.7248658 
O    -0.8503321   -2.5960562   -0.5255989 
O    -1.0853148   -2.1715104   -2.8696677 
H    -2.0207042   -2.4663898   -2.6211354 
N     1.5079263   -0.8945182   -2.9231058 
H     1.7042110   -2.7783370   -1.9638219 
H     2.5232731   -0.9851721   -3.1579275 
H     0.9810603   -1.1948041   -3.7806947 
