24
Energy =
C    -0.2825307    2.1936749   -1.5446976 
C    -0.3301789    2.7016199   -0.2844854 
C     0.3764218    2.1065508    0.7030367 
C     0.4695453    1.0956752   -1.8093890 
C     1.1804838    0.4938388   -0.8155459 
C     1.1304138    1.0079326    0.4445836 
O    -1.0942139    3.8320803    0.0225664 
H    -1.5984562    4.2175223   -0.7686789 
H     1.6902193    0.5471981    1.2541319 
H     0.4985849    0.7019669   -2.8226028 
H    -0.8454248    2.6642104   -2.3435839 
H     0.3294144    2.5227455    1.7035608 
C     2.0144654   -0.7341210   -1.1148577 
C     1.1454069   -1.9948678   -1.3469379 
H     2.7448602   -0.9394316   -0.2992583 
H     2.6258758   -0.5287367   -2.0232081 
C     1.9975363   -3.1127639   -1.9286028 
O     1.9032863   -3.4325119   -3.2774142 
O     2.9231400   -3.7780592   -1.1335533 
H     3.3991006   -4.4711213   -1.6976350 
N     0.4303110   -2.4013328   -0.1114137 
H     0.3847768   -1.7749078   -2.1306394 
H     0.7176555   -3.3639806    0.1927177 
H     0.6482510   -1.7785681    0.6991573 
