24
Energy =
C     0.0155856    2.3404191   -1.7658189 
C    -0.5706647    2.6387199   -0.5755721 
C    -0.3135416    1.8702610    0.5072093 
C     0.8557762    1.2792189   -1.8654506 
C     1.1233064    0.5112892   -0.7729143 
C     0.5267282    0.8088453    0.4135591 
O    -1.4410188    3.7251432   -0.4387757 
H    -1.5858303    4.2491944   -1.2948786 
H     0.7107764    0.1940146    1.2909532 
H     1.3106575    1.0483304   -2.8255851 
H    -0.1886810    2.9477576   -2.6408811 
H    -0.7933641    2.1134910    1.4487978 
C     2.0417463   -0.6853170   -0.8870811 
C     1.2631928   -1.9586532   -1.2712017 
H     2.5807831   -0.8520424    0.0728676 
H     2.8296768   -0.4776607   -1.6465755 
C     2.2133368   -3.0696705   -1.6807575 
O     3.0040792   -3.7122387   -0.7352025 
O     2.3316212   -3.4187943   -3.0182633 
H     3.0113523   -4.1647219   -3.1011834 
N     0.3878743   -2.3529539   -0.1508959 
H     0.6422232   -1.7480525   -2.1744655 
H    -0.1969168   -3.1715293   -0.4449271 
H     0.9772757   -2.6907972    0.6487633 
