24
Energy =
C    -1.1025497    1.6388382   -1.2448357 
C    -1.5463689    1.4957115    0.0254208 
C    -0.7448651    0.9418744    0.9639631 
C     0.1539988    1.2440529   -1.5771018 
C     0.9710673    0.6990014   -0.6333199 
C     0.5101592    0.5402103    0.6382403 
O    -2.8313982    1.9084219    0.3645183 
H    -2.8332228    2.8817381    0.6487568 
H     1.1398229    0.0890189    1.4005945 
H     0.4972252    1.3452323   -2.6069177 
H    -1.7682661    2.0605331   -1.9905223 
H    -1.1190985    0.8162715    1.9743941 
C     2.3614832    0.2345006   -1.0069148 
C     2.3583075   -1.2008119   -1.5771738 
H     3.0252911    0.2789077   -0.1147079 
H     2.8132545    0.9334999   -1.7465533 
C     1.5321792   -1.2993836   -2.8602263 
O     0.3478126   -2.0247004   -2.8526513 
O     1.8980018   -0.6218526   -4.0236675 
H     2.8275311   -0.2345204   -3.9357741 
N     3.7547985   -1.6157153   -1.7959631 
H     1.8698162   -1.8863292   -0.8434839 
H     4.2384523   -1.7054953   -0.8711306 
H     3.7688062   -2.5739759   -2.2221874 
