24
Energy =
C    -0.4959325    1.3173581    0.9928398 
C     0.0026935    2.5129664    0.5795098 
C     1.0760377    2.5413018   -0.2429017 
C     0.0825854    0.1595114    0.5840289 
C     1.1685344    0.1871346   -0.2365811 
C     1.6578988    1.3864373   -0.6553955 
O    -0.5695592    3.7242266    0.9808930 
H    -1.3674420    3.6195838    1.5982058 
H     2.5156978    1.4300913   -1.3218493 
H    -0.3331307   -0.7922280    0.9076895 
H    -1.3606651    1.2844509    1.6467792 
H     1.4609320    3.5017347   -0.5681093 
C     1.8004106   -1.1035732   -0.7112920 
C     1.1199256   -1.6342355   -1.9871509 
H     1.7386508   -1.8786780    0.0862226 
H     2.8866187   -0.9420241   -0.8970298 
C     1.9300484   -2.7675163   -2.6277227 
O     2.8213688   -3.5116119   -1.8627440 
O     1.7545161   -3.1064445   -3.9689757 
H     1.0532353   -2.5333165   -4.4148124 
N    -0.2595482   -2.0426469   -1.6448227 
H     1.1029111   -0.8076829   -2.7363466 
H    -0.9421229   -1.4562126   -2.1808540 
H    -0.4473844   -3.0418265   -1.9061840 
