24
Energy =
C     0.3983057    2.4851570   -1.1596605 
C    -0.6767962    2.5109310   -0.3274215 
C    -0.9517866    1.4339672    0.4430176 
C     1.1914899    1.3853914   -1.2155244 
C     0.9191569    0.3027983   -0.4355498 
C    -0.1620652    0.3314921    0.3916588 
O    -1.5148817    3.6273061   -0.2460611 
H    -1.2441683    4.3936544   -0.8531673 
H    -0.4055012   -0.5277935    1.0120151 
H     2.0449971    1.3773990   -1.8898884 
H     0.6249021    3.3430361   -1.7837920 
H    -1.8148977    1.4662870    1.0993358 
C     1.7942886   -0.9292026   -0.5127347 
C     1.4331066   -1.8201888   -1.7207734 
H     1.7134294   -1.5267971    0.4236410 
H     2.8596575   -0.6082422   -0.5822077 
C     2.5213515   -2.8650898   -1.9449433 
O     3.5259329   -2.5991991   -2.8668696 
O     2.5982693   -4.0324629   -1.1849563 
H     1.8052230   -4.1248848   -0.5663859 
N     0.1149327   -2.4388616   -1.5025012 
H     1.4063529   -1.2021273   -2.6488884 
H    -0.6259203   -1.7032615   -1.5900722 
H    -0.0739466   -3.1112253   -2.2833341 
