24
Energy =
C     0.0186502    1.9145738    0.7531300 
C     0.0786887    2.8554113   -0.2175913 
C     0.7078070    2.5849656   -1.3842633 
C     0.5985059    0.7018187    0.5646547 
C     1.2468629    0.4271862   -0.6015647 
C     1.2910971    1.3751140   -1.5796461 
O    -0.5153683    4.0979021   -0.0198910 
H     0.1339959    4.7408726    0.4194455 
H     1.7847008    1.1678452   -2.5269003 
H     0.5367706   -0.0471673    1.3498286 
H    -0.5037647    2.1395520    1.6766106 
H     0.7340867    3.3408865   -2.1622392 
C     1.8745842   -0.9327226   -0.8225198 
C     0.8444843   -1.9703728   -1.3324481 
H     2.3181656   -1.2895676    0.1332839 
H     2.7156309   -0.8592196   -1.5503925 
C     0.2468422   -1.5674304   -2.6710901 
O     1.0645047   -1.2133400   -3.7419210 
O    -1.1338654   -1.5212736   -2.8270837 
H    -1.3449986   -1.2495803   -3.7781514 
N     1.4595587   -3.3129696   -1.4208548 
H    -0.0168942   -1.9953278   -0.6231700 
H     2.4548149   -3.3306963   -1.0950625 
H     0.9266420   -3.9890214   -0.8243510 
