24
Energy =
C    -0.5033494    1.7978615    0.3723678 
C    -0.1955574    2.7495151   -0.5485519 
C     0.7632395    2.5028309   -1.4699060 
C     0.1511695    0.6086993    0.3684496 
C     1.1228574    0.3622405   -0.5526645 
C     1.4199596    1.3147945   -1.4792614 
O    -0.8494725    3.9853462   -0.5726206 
H    -1.5575889    4.0924924    0.1456511 
H     2.1820218    1.1346389   -2.2333510 
H    -0.1146184   -0.1534130    1.0975965 
H    -1.2770497    1.9831974    1.1096704 
H     0.9948339    3.2693973   -2.2015604 
C     1.8386807   -0.9715921   -0.5688902 
C     1.0048977   -2.0562747   -1.2841035 
H     2.0612693   -1.2974771    0.4721177 
H     2.8301657   -0.8627965   -1.0653123 
C     1.8480667   -3.2845096   -1.6347405 
O     2.9976636   -3.5697959   -0.9069580 
O     1.4714869   -4.1504600   -2.6600813 
H     0.5858061   -3.8901308   -3.0679051 
N    -0.1551114   -2.4008421   -0.4412068 
H     0.6489834   -1.6376839   -2.2544829 
H    -0.8143123   -3.0047080   -0.9879928 
H     0.1616102   -2.9766541    0.3776018 
