24
Energy =
C     0.1804327    1.5717684    1.1419649 
C     0.0137549    2.6672782    0.3654544 
C     0.5116736    2.6874641   -0.8920011 
C     0.8410402    0.4879455    0.6602527 
C     1.3460277    0.5013740   -0.6046202 
C     1.1736782    1.6076149   -1.3806292 
O    -0.6652552    3.7756070    0.8616906 
H    -1.6602723    3.6923659    0.6847214 
H     1.5602874    1.6332644   -2.3974557 
H     0.9639882   -0.3870608    1.2931230 
H    -0.2176774    1.5731775    2.1506870 
H     0.3751486    3.5735934   -1.5029491 
C     2.0624938   -0.7143820   -1.1500814 
C     1.0762014   -1.7733551   -1.6843644 
H     2.6923209   -1.1574111   -0.3478560 
H     2.7655389   -0.4281387   -1.9667047 
C     0.2718607   -1.2612958   -2.8759564 
O    -1.0694567   -1.6078394   -3.0015598 
O     0.8635858   -0.4765760   -3.8624019 
H     0.1792859   -0.2894264   -4.5831776 
N     1.8375198   -2.9862428   -2.0295782 
H     0.3327182   -2.0153528   -0.8891359 
H     2.2254788   -3.4118919   -1.1549143 
H     1.1839748   -3.7010316   -2.4314237 
