24
Energy =
C    -0.3674199    2.3172840   -1.3287509 
C    -1.0888241    2.2423491   -0.1870015 
C    -0.7822235    1.3142510    0.7479441 
C     0.6766083    1.4723444   -1.5329398 
C     1.0005745    0.5433254   -0.5885096 
C     0.2569552    0.4634646    0.5500918 
O    -2.1538285    3.1124619    0.0203214 
H    -1.8399167    3.9651538    0.4702646 
H     0.4846761   -0.2821880    1.3081068 
H     1.2392950    1.5276707   -2.4668318 
H    -0.6443176    3.0509192   -2.0792379 
H    -1.3803990    1.2536890    1.6513170 
C     2.1510224   -0.4157709   -0.8174410 
C     1.7468262   -1.6024086   -1.7148095 
H     2.5206014   -0.8107781    0.1553402 
H     3.0121897    0.1217572   -1.2741390 
C     1.4342047   -1.1582945   -3.1355485 
O     0.3089688   -1.6429284   -3.7807499 
O     2.2418605   -0.2333671   -3.7891141 
H     3.0943333   -0.6919580   -4.0795515 
N     2.8179441   -2.6126706   -1.6689212 
H     0.8037600   -2.0503057   -1.3187001 
H     2.5185891   -3.4504451   -2.2251221 
H     3.6779181   -2.2375534   -2.1349410 
