24
Energy =
C     0.2682709    2.5167796   -1.5786067 
C    -0.1925718    2.7138919   -0.3225211 
C     0.0247314    1.7809692    0.6319911 
C     0.9552295    1.3873606   -1.8840194 
C     1.1799403    0.4403235   -0.9286726 
C     0.7127912    0.6492502    0.3353144 
O    -0.8942147    3.8748919   -0.0131037 
H    -0.2600046    4.6119450    0.2742912 
H     0.8804597   -0.0894332    1.1157354 
H     1.3225296    1.2504253   -2.8973045 
H     0.0791296    3.2688712   -2.3363133 
H    -0.3599202    1.9453992    1.6330798 
C     1.9483376   -0.8260043   -1.2628614 
C     1.0414503   -2.0589156   -1.5170585 
H     2.6476689   -1.0553562   -0.4267977 
H     2.5927450   -0.6637090   -2.1551759 
C     0.2165383   -2.4269559   -0.2866795 
O     0.8387110   -3.0315178    0.7992075 
O    -1.1336855   -2.1066596   -0.1975298 
H    -1.4866138   -2.4184116    0.6981934 
N     0.2499432   -1.9174538   -2.7650871 
H     1.7167235   -2.9331884   -1.6568692 
H    -0.7768364   -2.0302147   -2.5761081 
H     0.3471352   -0.9696156   -3.1920488 
