24
Energy =
C     0.8899618    2.5760388   -0.7571390 
C    -0.3673664    2.6306012   -0.2598739 
C    -0.9355945    1.5218737    0.2670863 
C     1.5825334    1.4084825   -0.7352915 
C     1.0174487    0.2883848   -0.2045292 
C    -0.2494786    0.3510994    0.2935894 
O    -1.0741186    3.8286296   -0.2841143 
H    -1.5926876    3.9222806   -1.1504888 
H    -0.7219898   -0.5344615    0.7123503 
H     2.5909667    1.3786797   -1.1416728 
H     1.3353789    3.4756576   -1.1683166 
H    -1.9419638    1.5802754    0.6684844 
C     1.7833497   -1.0161090   -0.1932979 
C     1.6913712   -1.7554376   -1.5435517 
H     1.4088238   -1.6886414    0.6115510 
H     2.8492715   -0.8110949    0.0569123 
C     2.7136322   -2.8786993   -1.6004043 
O     3.4237977   -3.1099534   -2.7690874 
O     2.9138334   -3.7131476   -0.5093108 
H     2.1912549   -4.4185518   -0.5164095 
N     0.3211051   -2.2677343   -1.7276476 
H     1.9575910   -1.0574126   -2.3728834 
H    -0.3181814   -1.4623421   -1.9255569 
H     0.2912396   -2.8574477   -2.5953706 
