24
Energy =
C    -0.2048562    2.4571868   -1.4361347 
C    -0.5988091    2.6080835   -0.1509887 
C    -0.1608064    1.7476905    0.7965047 
C     0.6386543    1.4510660   -1.7771875 
C     1.0941563    0.5856158   -0.8273001 
C     0.6853855    0.7397617    0.4638962 
O    -1.4608048    3.6442008    0.1951983 
H    -0.9402367    4.4844581    0.4205834 
H     1.0221945    0.0525395    1.2366805 
H     0.9398685    1.3393862   -2.8154654 
H    -0.5763228    3.1433674   -2.1887148 
H    -0.4988407    1.8673608    1.8205985 
C     2.0292207   -0.5469817   -1.2063797 
C     1.2962375   -1.8832074   -1.4677474 
H     2.7891199   -0.6784643   -0.4050623 
H     2.5988574   -0.2718761   -2.1226248 
C     0.5409472   -2.3930799   -0.2382035 
O    -0.8472584   -2.4118314   -0.2279261 
O     1.2216156   -2.8427204    0.8934663 
H     2.2229260   -2.7986523    0.7867584 
N     0.4442917   -1.7488290   -2.6652396 
H     2.0677884   -2.6593992   -1.6751886 
H     0.0066254   -2.6773396   -2.8809771 
H    -0.3654426   -1.1192939   -2.4443509 
