24
Energy =
C     0.2033184    2.4665271   -0.8879978 
C     0.0002312    2.4649278    0.4495259 
C     0.3994316    1.4078435    1.1934049 
C     0.8219460    1.4156439   -1.4848341 
C     1.2432017    0.3553342   -0.7409932 
C     1.0186496    0.3535095    0.6034102 
O    -0.6271537    3.5471179    1.0587470 
H     0.0515759    4.2505531    1.3270422 
H     1.3206176   -0.4954236    1.2121013 
H     0.9637529    1.4145203   -2.5627542 
H    -0.1439680    3.3102092   -1.4744332 
H     0.2107773    1.4088458    2.2617560 
C     1.9224156   -0.8246874   -1.4079949 
C     0.9194550   -1.7921516   -2.0611343 
H     2.5388641   -1.3828916   -0.6675766 
H     2.6288649   -0.4571215   -2.1840239 
C    -0.0573598   -2.3580240   -1.0325569 
O    -1.3326292   -1.8261605   -0.8669827 
O     0.3550654   -3.3914986   -0.2004376 
H    -0.4074716   -3.6345256    0.4194616 
N     0.2821901   -1.1132481   -3.2132687 
H     1.4923688   -2.6800680   -2.4190287 
H     0.6066393   -1.5571891   -4.1043697 
H    -0.7610880   -1.2267995   -3.1931164 
