24
Energy =
C    -0.2326615    2.2762484   -1.6764020 
C    -1.2542381    2.2274667   -0.7914059 
C    -1.2285814    1.3132407    0.2146496 
C     0.8152626    1.4213280   -1.5650117 
C     0.8499124    0.5095308   -0.5544978 
C    -0.1827993    0.4559087    0.3313894 
O    -2.3169283    3.1243670   -0.9403093 
H    -3.0437501    3.0292942   -0.2395903 
H    -0.1803956   -0.2774408    1.1343339 
H     1.6239197    1.4720393   -2.2903854 
H    -0.2656789    3.0073675   -2.4772219 
H    -2.0463742    1.2643812    0.9248743 
C     2.0073416   -0.4599069   -0.4434127 
C     1.7895396   -1.7120434   -1.3213701 
H     2.1521955   -0.7713896    0.6155351 
H     2.9453215    0.0640769   -0.7407937 
C     3.1031600   -2.5159113   -1.4364285 
O     4.2108179   -1.8348539   -1.9331808 
O     3.2905176   -3.8626471   -1.0956291 
H     2.4761276   -4.3911492   -0.8445613 
N     0.5939799   -2.4216063   -0.8160124 
H     1.5895408   -1.3640079   -2.3614028 
H    -0.1658024   -2.3781730   -1.5349725 
H     0.7289284   -3.4227570   -0.5798656 
