24
Energy =
C     0.7140189    2.5449000   -0.1235475 
C    -0.2300287    2.2037255    0.7820746 
C    -0.4395740    0.9028580    1.0846671 
C     1.4498873    1.5831987   -0.7376409 
C     1.2430857    0.2672232   -0.4442574 
C     0.2917698   -0.0658568    0.4759466 
O    -0.9715657    3.1912430    1.4188263 
H    -1.8284224    3.3959856    0.9142945 
H     0.1155712   -1.1049160    0.7417798 
H     2.2061745    1.8834240   -1.4607585 
H     0.8785848    3.5956902   -0.3443102 
H    -1.1897643    0.6495503    1.8281337 
C     2.0644551   -0.8132290   -1.1247626 
C     1.2555525   -1.5511301   -2.2363130 
H     2.3995592   -1.5338133   -0.3451758 
H     2.9974877   -0.3705251   -1.5548987 
C     0.9769913   -0.7014097   -3.4728679 
O     1.5518846    0.5513015   -3.5913206 
O     0.1737659   -1.1359871   -4.5248658 
H     0.2150664   -2.1490063   -4.5898456 
N     1.9628344   -2.7427030   -2.6849162 
H     0.2737956   -1.8629492   -1.8116625 
H     2.0289576   -3.4451408   -1.8983009 
H     1.3408028   -3.1123356   -3.4587649 
