24
Energy =
C    -0.5989162    0.8582268    1.0297259 
C    -0.3426080    2.1595069    0.7654332 
C     0.6634531    2.4859644   -0.0883765 
C     0.1393681   -0.1202972    0.4474534 
C     1.1487898    0.2002942   -0.4088394 
C     1.4071821    1.5118214   -0.6708837 
O    -1.1263530    3.1382399    1.3847677 
H    -0.8860231    4.0893374    1.1266677 
H     2.2060316    1.7902451   -1.3544025 
H    -0.0827367   -1.1604769    0.6722334 
H    -1.4045278    0.6102213    1.7128393 
H     0.8736765    3.5265487   -0.3091112 
C     1.9645457   -0.8965829   -1.0639696 
C     1.1953802   -1.5945297   -2.2194532 
H     2.2254923   -1.6437928   -0.2816681 
H     2.9318136   -0.5007099   -1.4499012 
C     0.9642835   -0.6894002   -3.4367421 
O     1.5759753    0.5550014   -3.5313645 
O     0.1336996   -1.0974068   -4.4773926 
H    -0.0746264   -2.0816561   -4.3917410 
N     1.8496443   -2.8715236   -2.5884611 
H     0.1740145   -1.8413729   -1.8553380 
H     2.1649202   -2.8578373   -3.5860818 
H     2.7144911   -3.0631233   -2.0266819 
