24
Energy =
C     0.5525599    2.6422334   -0.8473704 
C     0.1884987    2.6017780    0.4618837 
C     0.3779816    1.4675972    1.1735207 
C     1.1070040    1.5514349   -1.4354878 
C     1.3041747    0.4107477   -0.7174633 
C     0.9287996    0.3729123    0.5903264 
O    -0.3828413    3.7079484    1.0991075 
H    -0.5082884    4.5148919    0.4973587 
H     1.0644786   -0.5318271    1.1776145 
H     1.3813569    1.5933569   -2.4889234 
H     0.3955930    3.5453063   -1.4274035 
H     0.0783061    1.4475100    2.2157257 
C     1.8959944   -0.8187093   -1.3741472 
C     0.8078128   -1.7384295   -1.9611130 
H     2.4979392   -1.3844439   -0.6295073 
H     2.6118421   -0.5353674   -2.1802078 
C     0.0734298   -1.0725639   -3.1294442 
O     0.7790719   -0.3037886   -4.0493165 
O    -1.2981736   -1.2415705   -3.3185417 
H    -1.7111254   -1.8472988   -2.6258946 
N     1.4478079   -2.9962120   -2.3782483 
H     0.0567162   -1.9506975   -1.1652424 
H     1.6908986   -3.5590837   -1.5295497 
H     0.7661759   -3.5743329   -2.9274926 
