24
Energy =
C     0.0018543    1.4649961    1.1297132 
C     0.0347416    2.5906214    0.3670141 
C     0.6465495    2.5631588   -0.8388453 
C     0.5815230    0.3215974    0.6842233 
C     1.2069601    0.2962654   -0.5246421 
C     1.2306527    1.4238204   -1.2878230 
O    -0.5528373    3.7848851    0.7969154 
H    -0.9948292    3.7247072    1.7077859 
H     1.7061010    1.4188088   -2.2666530 
H     0.5406628   -0.5725008    1.3017349 
H    -0.4904428    1.4762866    2.0962178 
H     0.6577403    3.4642919   -1.4424109 
C     1.8288835   -0.9860815   -1.0339056 
C     0.8161071   -1.8588153   -1.7914301 
H     2.2441075   -1.5670348   -0.1804035 
H     2.6965280   -0.7681583   -1.6985376 
C     0.3134035   -1.1462985   -3.0565006 
O     1.1333831   -1.0710897   -4.1764423 
O    -0.9240858   -0.5020632   -3.0930390 
H    -1.4061568   -0.5491536   -2.2079280 
N     1.4748658   -3.1503569   -2.0757152 
H    -0.0634515   -2.0367298   -1.1299717 
H     1.0134306   -3.9131079   -1.5261153 
H     1.3886122   -3.4180296   -3.0871979 
