24
Energy =
C    -0.3000871    2.1265361   -1.7442922 
C    -0.7329406    2.5104561   -0.5217760 
C    -0.2673060    1.8746073    0.5861663 
C     0.5945305    1.1139145   -1.8706267 
C     1.0684653    0.4782073   -0.7640917 
C     0.6277056    0.8613192    0.4659940 
O    -1.6564377    3.5568584   -0.4330692 
H    -1.9300303    3.7914461    0.5148190 
H     0.9849986    0.3546524    1.3598136 
H     0.9273270    0.8173519   -2.8622821 
H    -0.6804249    2.6398232   -2.6211132 
H    -0.6123484    2.1740005    1.5695464 
C     2.0509427   -0.6634032   -0.9047126 
C     1.3475636   -1.9987832   -1.2257467 
H     2.6487851   -0.7859938    0.0271332 
H     2.7848551   -0.4172039   -1.7052931 
C     2.3486783   -3.0694671   -1.6391607 
O     3.7080763   -2.9324584   -1.3746196 
O     1.8980102   -4.2118467   -2.2868349 
H     2.6907240   -4.8139143   -2.4714660 
N     0.5575777   -2.4234567   -0.0547660 
H     0.6806848   -1.8654008   -2.1099063 
H    -0.3098942   -1.8402276   -0.0020559 
H     0.2227878   -3.4071543   -0.2076410 
