24
Energy =
C    -1.2154868    1.7921366   -0.5309738 
C    -1.0607435    1.6734552    0.8082557 
C     0.0721358    1.1342652    1.3135625 
C    -0.2379903    1.3634195   -1.3721783 
C     0.9041753    0.8193546   -0.8692877 
C     1.0522110    0.7036016    0.4796177 
O    -2.0641140    2.1143521    1.6653838 
H    -2.7534894    1.3865673    1.8198504 
H     1.9555310    0.2633952    0.8972907 
H    -0.3686164    1.4638577   -2.4470041 
H    -2.1263845    2.2393998   -0.9151099 
H     0.1888116    1.0511428    2.3891352 
C     1.9876888    0.3253344   -1.8013373 
C     1.7509652   -1.1329954   -2.2407996 
H     2.9849653    0.3904216   -1.3056315 
H     2.0538264    0.9946951   -2.6892569 
C     2.6498426   -1.4766129   -3.4303668 
O     3.8831020   -2.0818417   -3.2270313 
O     2.2735715   -1.1466456   -4.7333464 
H     1.3777532   -0.6870942   -4.7761984 
N     1.9877009   -2.0159407   -1.0824539 
H     0.7046337   -1.2601932   -2.6022552 
H     1.1312267   -2.0398580   -0.4817660 
H     2.1542411   -3.0007291   -1.4046835 
