24
Energy =
C     0.9977315    1.6373755    1.1422682 
C     0.8228814    2.7480351    0.3893069 
C     0.9137595    2.6729987   -0.9582721 
C     1.2752981    0.4478074    0.5499316 
C     1.3835615    0.3673624   -0.8056864 
C     1.1935622    1.4879238   -1.5576892 
O     0.5395585    3.9655019    1.0008299 
H     1.3947073    4.4548373    1.2404011 
H     1.2550861    1.4421199   -2.6429212 
H     1.4057246   -0.4374886    1.1670303 
H     0.9053073    1.7098167    2.2204862 
H     0.7534550    3.5661222   -1.5531252 
C     1.6701978   -0.9636707   -1.4673226 
C     0.3737709   -1.7768415   -1.6990718 
H     2.3713102   -1.5430591   -0.8272053 
H     2.1994726   -0.8092944   -2.4357922 
C    -0.5475476   -1.1207809   -2.7314665 
O    -0.0018443   -0.5285316   -3.8661391 
O    -1.9349206   -1.1356433   -2.5884433 
H    -2.2276545   -1.7029482   -1.8073510 
N     0.7150154   -3.1521760   -2.0991232 
H    -0.1925772   -1.8174067   -0.7407349 
H     1.2662132   -3.1371212   -2.9924641 
H     1.3071632   -3.6093397   -1.3663736 
