24
Energy =
C     0.0312625    1.8265668    0.8069095 
C     0.2178087    2.8424351   -0.0672535 
C     0.9194524    2.6360107   -1.2051623 
C     0.5417019    0.5965711    0.5428582 
C     1.2521288    0.3823249   -0.5992108 
C     1.4335340    1.4092938   -1.4760780 
O    -0.3068307    4.1012609    0.2067653 
H    -1.2549127    4.1803906   -0.1445911 
H     1.9865111    1.2545271   -2.4012133 
H     0.3810455   -0.2116873    1.2520413 
H    -0.5263249    2.0100479    1.7190455 
H     1.0663462    3.4602683   -1.8957212 
C     1.8004921   -0.9931765   -0.9096508 
C     0.7411284   -1.9027503   -1.5773675 
H     2.1571417   -1.4660897    0.0327103 
H     2.6910226   -0.9142572   -1.5756224 
C     0.2410739   -1.3070442   -2.8890375 
O     1.0925031   -1.1991737   -3.9804471 
O    -1.0484916   -0.8029263   -2.9850131 
H    -1.0794348    0.1037897   -2.5436030 
N     1.2669100   -3.2819824   -1.7359246 
H    -0.1592539   -1.9537943   -0.9223655 
H     1.3211430   -3.5533873   -2.7495649 
H     2.2423317   -3.3875088   -1.3696089 
