24
Energy =
C    -0.2199531    1.1057367    1.2901465 
C    -0.0269519    2.3503297    0.7984042 
C     0.7838105    2.5290796   -0.2781845 
C     0.3917219    0.0375847    0.7180893 
C     1.2074323    0.2108488   -0.3584853 
C     1.3973855    1.4645083   -0.8548378 
O    -0.6730171    3.4254587    1.4169403 
H    -0.4851202    4.3248272    0.9881259 
H     2.0364749    1.6203179   -1.7209220 
H     0.2195430   -0.9572461    1.1240395 
H    -0.8734562    0.9760727    2.1463134 
H     0.9405651    3.5234765   -0.6807821 
C     1.8830581   -0.9798218   -1.0100353 
C     1.0086219   -1.6695548   -2.0806376 
H     2.1659590   -1.7223617   -0.2296515 
H     2.8375597   -0.6598929   -1.4837791 
C    -0.2748730   -2.2573759   -1.5058442 
O    -0.2338954   -3.0225837   -0.3458569 
O    -1.4871255   -2.0951035   -2.1639884 
H    -2.2076088   -2.5767506   -1.6410067 
N     0.7726368   -0.7383998   -3.2006618 
H     1.5774892   -2.5489710   -2.4599932 
H     0.2659602   -1.2570653   -3.9588408 
H     0.0877164   -0.0078847   -2.8905303 
