24
Energy =
C     1.3048564    2.4878385   -0.9632028 
C     1.2160329    2.6142178    0.3874916 
C     1.1604113    1.5055782    1.1597118 
C     1.3339643    1.2576239   -1.5321112 
C     1.2672121    0.1364003   -0.7582394 
C     1.1915195    0.2722343    0.5958217 
O     1.1859278    3.8686775    1.0062026 
H     1.2229720    4.6497358    0.3600053 
H     1.1545321   -0.6022099    1.2409308 
H     1.4176683    1.1798114   -2.6121823 
H     1.3565125    3.3697435   -1.5930894 
H     1.0916829    1.6160804    2.2368825 
C     1.3075039   -1.2435701   -1.3971842 
C    -0.0453140   -1.7081988   -2.0001028 
H     1.6610391   -2.0017265   -0.6625119 
H     2.0709343   -1.2376347   -2.2064826 
C    -1.0794703   -2.1222201   -0.9511386 
O    -0.9055092   -1.8121915    0.3949278 
O    -2.2284157   -2.8275623   -1.3249996 
H    -2.2486680   -3.0544995   -2.3117889 
N    -0.5890548   -0.6870169   -2.9068952 
H     0.1756602   -2.6209202   -2.5991649 
H     0.0719290   -0.5777267   -3.7106282 
H    -1.4821781   -1.0390013   -3.3263397 
