24
Energy =
C     0.4529357    2.5497031   -1.4578103 
C    -0.0054739    2.8099904   -0.2046849 
C     0.1093871    1.8672952    0.7580903 
C     1.0241164    1.3521131   -1.7401104 
C     1.1458530    0.4025027   -0.7702316 
C     0.6833226    0.6690159    0.4826532 
O    -0.5955767    4.0359449    0.1195844 
H    -0.6628462    4.6829972   -0.6582840 
H     0.7565545   -0.0777067    1.2701360 
H     1.3807558    1.1600803   -2.7483174 
H     0.3626824    3.2980606   -2.2373190 
H    -0.2692254    2.0821490    1.7516773 
C     1.7722482   -0.9422665   -1.0854986 
C     0.7291324   -2.0390764   -1.4206619 
H     2.3907055   -1.2685916   -0.2190559 
H     2.4824549   -0.8387972   -1.9357383 
C    -0.1445593   -2.3856040   -0.2142463 
O    -1.3745768   -1.7642032   -0.0389821 
O     0.3077637   -3.2525853    0.7816437 
H     1.2217190   -3.6297832    0.5871507 
N    -0.0661816   -1.6677495   -2.6070526 
H     1.2725875   -2.9800357   -1.6614740 
H    -0.7399309   -0.9000928   -2.3621512 
H     0.5523496   -1.3152582   -3.3739051 
