24
Energy =
C    -0.4969867    1.9953515   -1.8970401 
C    -0.7608895    2.5575513   -0.6873749 
C    -0.1084154    2.1155162    0.4116251 
C     0.4163613    0.9970445   -2.0004807 
C     1.0761046    0.5537103   -0.8951405 
C     0.8058949    1.1171559    0.3144043 
O    -1.6965196    3.5873441   -0.5452766 
H    -2.1425733    3.8625654   -1.4136874 
H     1.3150765    0.7736111    1.2111563 
H     0.6150338    0.5551676   -2.9740522 
H    -1.0164068    2.3418057   -2.7839804 
H    -0.3299461    2.5717492    1.3703424 
C     2.0820771   -0.5698157   -1.0107608 
C     1.4053879   -1.9558339   -1.1456944 
H     2.7752540   -0.5780462   -0.1383969 
H     2.7247718   -0.3812947   -1.9006139 
C     2.4334237   -3.0265277   -1.4706415 
O     2.3174105   -3.7818262   -2.6326476 
O     3.5244703   -3.2297350   -0.6312610 
H     4.0827217   -3.9883568   -1.0010268 
N     0.6609458   -2.2969575    0.0791345 
H     0.6982473   -1.9416713   -2.0068156 
H     1.2989343   -2.2537169    0.9097292 
H    -0.1175187   -1.6136679    0.2288042 
