24
Energy =
C     0.0784143    1.6356138    1.2026357 
C    -0.4324496    2.5022940    0.2880040 
C    -0.1624230    2.3242081   -1.0249608 
C     0.8547730    0.5977290    0.8000858 
C     1.1267529    0.4165202   -0.5224465 
C     0.6131732    1.2882847   -1.4335795 
O    -1.2348348    3.5824031    0.6695169 
H    -1.3959950    3.6458178    1.6688301 
H     0.8191971    1.1631408   -2.4938956 
H     1.2547419   -0.0849386    1.5451670 
H    -0.1329765    1.7708710    2.2578429 
H    -0.5762487    3.0226584   -1.7442979 
C     1.9867271   -0.7414056   -0.9833832 
C     1.1535862   -1.8622489   -1.6528707 
H     2.5728389   -1.1755212   -0.1415265 
H     2.7400787   -0.3518786   -1.7058940 
C     2.0746375   -2.8343234   -2.3736600 
O     2.1642559   -2.8126611   -3.7599548 
O     2.8795778   -3.7076721   -1.6520422 
H     3.4260530   -4.2596897   -2.3014247 
N     0.2586769   -2.5347963   -0.6777319 
H     0.5217964   -1.4185112   -2.4564775 
H     0.4904743   -3.5552217   -0.5926992 
H     0.3564071   -2.1474327    0.2878730 
