24
Energy =
C     0.6528997    2.6331158   -1.1525103 
C     0.2950622    2.7957761    0.1419189 
C     0.4737017    1.7874140    1.0260383 
C     1.1879786    1.4571257   -1.5690644 
C     1.3721728    0.4374230   -0.6840825 
C     1.0053072    0.6073920    0.6164354 
O    -0.2513219    4.0027660    0.5653325 
H    -1.2590691    4.0003300    0.4489899 
H     1.1344747   -0.1976938    1.3359139 
H     1.4586498    1.3294032   -2.6162676 
H     0.5048442    3.4522845   -1.8480058 
H     0.1866531    1.9325771    2.0624389 
C     1.9379428   -0.8863365   -1.1505527 
C     0.8325774   -1.8484285   -1.6257804 
H     2.5056018   -1.3691124   -0.3236759 
H     2.6735355   -0.7289206   -1.9717605 
C     0.0867633   -1.3171971   -2.8375073 
O     0.7753385   -0.7953209   -3.9275493 
O    -1.2987131   -1.3556587   -2.8662001 
H    -1.6167367   -0.9949783   -3.7570883 
N     1.4422521   -3.1638774   -1.8858206 
H     0.0642682   -1.9482814   -0.8218724 
H     0.6840812   -3.8419409   -2.1420474 
H     2.0605722   -3.0938085   -2.7306370 
