24
Energy =
C     0.5064479    2.4123074   -1.2320827 
C     0.9300358    2.9602406   -0.0613807 
C     1.5415048    2.1776907    0.8610068 
C     0.7006659    1.0915321   -1.4617605 
C     1.2978129    0.2996534   -0.5401355 
C     1.7321206    0.8523092    0.6246312 
O     0.7523532    4.3188682    0.2197921 
H     0.2903081    4.8421701   -0.5155793 
H     2.2348086    0.2439931    1.3721999 
H     0.3611504    0.5093081   -2.4291152 
H     0.0156079    3.0234752   -1.9801059 
H     1.8808540    2.6252535    1.7895446 
C     1.5423107   -1.1685660   -0.8632179 
C     0.3568156   -1.8691008   -1.5859068 
H     1.7442626   -1.7255553    0.0795165 
H     2.4586661   -1.2521341   -1.4877276 
C     0.1246405   -1.3778837   -3.0333857 
O     0.0399526   -0.0196706   -3.3386008 
O    -0.0628878   -2.2866318   -4.0610090 
H    -0.2315311   -1.7751750   -4.9181694 
N     0.5831086   -3.3236423   -1.5147196 
H    -0.5808428   -1.6275833   -1.0328588 
H    -0.2862408   -3.8105005   -1.8408316 
H     1.3197898   -3.5900271   -2.2130378 
