24
Energy =
C    -1.2425066    0.7560550    0.6081138 
C    -1.2612270    2.0140804    0.1112175 
C    -0.1988433    2.4834758   -0.5820084 
C    -0.1521788   -0.0323888    0.4283321 
C     0.9282319    0.4378981   -0.2569788 
C     0.8936749    1.6998338   -0.7690008 
O    -2.3766544    2.8232170    0.3066191 
H    -2.2978193    3.3385797    1.1758957 
H     1.7335807    2.0844871   -1.3409805 
H    -0.1563226   -1.0463753    0.8210240 
H    -2.1116934    0.3852261    1.1398429 
H    -0.2342123    3.4865216   -0.9935088 
C     2.1418518   -0.4441128   -0.4777122 
C     1.9959171   -1.3540299   -1.7177403 
H     2.3236729   -1.0626532    0.4290329 
H     3.0499742    0.1877104   -0.5954920 
C     0.8471990   -2.3566878   -1.5512241 
O    -0.3540042   -2.1779454   -2.2270776 
O     0.9626599   -3.4394628   -0.6767173 
H     1.8804264   -3.4948095   -0.2613045 
N     1.8515264   -0.5140227   -2.9191501 
H     2.9249458   -1.9606589   -1.8158490 
H     2.7551931   -0.0226379   -3.1113181 
H     1.6573670   -1.1205279   -3.7515815 
