24
Energy =
C     0.4068129    2.3743040    0.0017419 
C    -0.0872747    1.8898520    1.1663450 
C     0.0165347    0.5714117    1.4501909 
C     1.0261199    1.5341487   -0.8815221 
C     1.1442807    0.2111725   -0.5870541 
C     0.6282957   -0.2685658    0.5773452 
O    -0.7187813    2.7480574    2.0604638 
H    -0.0466281    3.1942510    2.6764517 
H     0.6986385   -1.3271064    0.8166605 
H     1.4197318    1.8962439   -1.8638986 
H     0.2731091    3.4376660   -0.1982236 
H    -0.3989774    0.1933366    2.3784734 
C     1.8152264   -0.7132112   -1.5776550 
C     0.8860892   -1.0551179   -2.7802563 
H     2.1580413   -1.6477046   -1.0761704 
H     2.7638621   -0.2386059   -1.9319386 
C     1.5242950   -0.6491179   -4.1219293 
O     1.6011298   -1.5630899   -5.1777107 
O     1.9866118    0.6752790   -4.3033154 
H     1.8897199    1.3117477   -3.4975300 
N     0.5403004   -2.4892163   -2.7118950 
H    -0.0490226   -0.4484419   -2.7410432 
H    -0.0807987   -2.6537566   -1.8840834 
H    -0.0252322   -2.7633040   -3.5529200 
