24
Energy =
C     0.5883400    2.1838251   -0.8759383 
C     0.9792230    2.3137731   -2.1666448 
C     1.5475917    1.2552030   -2.7801004 
C     0.7654885    0.9956139   -0.1671016 
C     1.3479977   -0.0469519   -0.8269135 
C     1.7190980    0.0883651   -2.1268296 
O     0.8588841    3.5490225   -2.8526959 
H     1.7929220    3.8859132   -3.0041730 
H     2.1394141   -0.7525005   -2.6620354 
H     0.2231465    1.2809146    2.9587215 
H     0.1667556    3.0393400   -0.3635267 
H     1.8634569    1.3402809   -3.8130762 
C     1.3461455   -1.3990606   -0.1939205 
C    -0.1176258   -1.7956241    0.0714587 
H     1.9170934   -1.3660318    0.7604093 
H     1.8158244   -2.1453864   -0.8420778 
C    -0.8430331   -0.7544103    0.9310972 
O    -2.1858128   -0.9958409    1.2857696 
O    -0.1134422    0.1501658    1.7243674 
H     0.6331385    1.4416244    1.5433128 
N    -0.8192132   -2.0679310   -1.2061986 
H    -0.0997917   -2.7030426    0.6930004 
H    -1.8272943   -2.1353639   -0.9602338 
H    -0.7720428   -1.1154239   -1.6574702 
