24
Energy =
C    -0.4332836    1.9300389   -0.2656876 
C     0.0939609    2.2523981    0.9389487 
C     1.2377861    1.6577439    1.3593712 
C     0.1853385    1.0049666   -1.0390224 
C     1.3159764    0.3900453   -0.6253027 
C     1.8536835    0.7300644    0.5782157 
O    -0.5322438    3.2006725    1.7414941 
H    -1.2161375    2.7624672    2.3487242 
H     2.7776815    0.2709687    0.9202217 
H    -0.1854588    0.6257257   -2.0894802 
H    -1.3420082    2.4164331   -0.6030576 
H     1.6594904    1.9371854    2.3192606 
C     2.0027455   -0.5948136   -1.5580916 
C     1.0357093   -1.5789800   -2.2833519 
H     2.7388667   -1.1980505   -0.9784934 
H     2.5871651   -0.0241050   -2.3138684 
C     0.1213210   -0.9093615   -3.3507464 
O    -0.5414323    0.2838148   -3.0685982 
O    -0.1621398   -1.4967835   -4.5796151 
H     0.2089679   -2.4262098   -4.6688986 
N     1.8651146   -2.6738535   -2.8152081 
H     0.3348790   -2.0019004   -1.5256215 
H     1.2702883   -3.5044506   -3.0409038 
H     2.3848633   -2.3655353   -3.6739330 
