24
Energy =
C    -1.1191150    1.6575988   -1.1352874 
C    -1.5882971    1.4476023    0.1238228 
C    -0.7953125    0.8473656    1.0403605 
C     0.1403940    1.2733813   -1.4681198 
C     0.9396805    0.6738077   -0.5438061 
C     0.4613999    0.4553300    0.7112606 
O    -2.8784048    1.8358014    0.5017036 
H    -3.4257413    2.2567480   -0.2405347 
H     1.0787054   -0.0352293    1.4592161 
H     0.5021495    1.4282689   -2.4848645 
H    -1.7559991    2.1269056   -1.8763319 
H    -1.1800924    0.6781743    2.0406635 
C     2.3302555    0.2149493   -0.9240513 
C     2.3190770   -1.1894630   -1.5666682 
H     2.9833820    0.2068821   -0.0228653 
H     2.7980167    0.9456401   -1.6219915 
C     1.4956463   -1.2163188   -2.8550050 
O     0.2971031   -1.9177083   -2.8822500 
O     1.8747391   -0.4903934   -3.9844468 
H     2.8100590   -0.1224096   -3.8762680 
N     3.7131262   -1.6023721   -1.8031549 
H     1.8242923   -1.9078295   -0.8695079 
H     4.1953198   -1.7366284   -0.8828908 
H     3.7214629   -2.5407347   -2.2716177 
