24
Energy =
C    -0.9961386    1.7907554   -1.2751178 
C    -1.4354930    1.7169149    0.0092202 
C    -0.6707746    1.1079943    0.9434136 
C     0.2074288    1.2617068   -1.6163643 
C     0.9824013    0.6534312   -0.6731367 
C     0.5309114    0.5732558    0.6084455 
O    -2.6665065    2.2559068    0.3947756 
H    -3.1943964    2.6698945   -0.3660604 
H     1.1246785    0.0813129    1.3746188 
H     0.5366263    1.3047557   -2.6570442 
H    -1.6112582    2.2654879   -2.0327011 
H    -1.0370270    1.0506181    1.9628892 
C     2.3190574    0.0460511   -1.0507976 
C     2.1704321   -1.3461389   -1.7004913 
H     2.9661339   -0.0389968   -0.1497550 
H     2.8639208    0.7238479   -1.7456986 
C     1.3545073   -1.2660581   -2.9871705 
O     0.0786874   -1.8083323   -3.0183536 
O     1.7946590   -0.5285796   -4.0851056 
H     2.7920771   -0.3706451   -4.0308387 
N     3.5173632   -1.8902302   -1.9431814 
H     1.6052324   -2.0195854   -1.0121676 
H     3.9649001   -2.1205040   -1.0244260 
H     3.4304915   -2.8026308   -2.4538489 
