24
Energy =
C     0.4513383    2.5493029   -1.6217009 
C    -0.1606917    2.8184962   -0.4469040 
C    -0.1155620    1.9050998    0.5585148 
C     1.1047252    1.3748077   -1.8036833 
C     1.1493419    0.4509016   -0.8024794 
C     0.5405478    0.7301262    0.3843513 
O    -0.8242710    4.0407509   -0.2990757 
H    -1.2791455    4.1590712    0.5997676 
H     0.5639971    0.0105042    1.2000792 
H     1.5911581    1.1838598   -2.7562124 
H     0.4108883    3.2860822   -2.4162515 
H    -0.6064465    2.1106338    1.5033042 
C     1.8793784   -0.8663409   -0.9995865 
C     0.9443193   -2.0631930   -1.3200359 
H     2.4605207   -1.0950153   -0.0772321 
H     2.6322929   -0.7710821   -1.8132494 
C    -0.0246741   -2.3563132   -0.1784203 
O    -1.2792761   -1.7634456   -0.1316993 
O     0.3761907   -3.1584378    0.8811414 
H     0.3421464   -4.1261566    0.5951413 
N     0.2925603   -1.9218186   -2.6456610 
H     1.5892350   -2.9689719   -1.3679695 
H    -0.7514058   -1.9986923   -2.5654962 
H     0.4634628   -0.9844173   -3.0746275 
