24
Energy =
C     0.5251750    2.6012824   -1.1637185 
C     0.5286441    2.7543269    0.1872108 
C     0.9538862    1.7398109    0.9740362 
C     0.9508633    1.4381993   -1.7193667 
C     1.3875656    0.4189412   -0.9277846 
C     1.3786983    0.5738300    0.4243920 
O     0.1002870    3.9403072    0.7916564 
H    -0.2192213    4.6477946    0.1388040 
H     1.7085965   -0.2325605    1.0748928 
H     0.9291234    1.3215428   -2.8021876 
H     0.1769655    3.4068915   -1.8012408 
H     0.9453881    1.8730083    2.0506011 
C     1.8399867   -0.8895046   -1.5412169 
C     0.6816792   -1.8883805   -1.7004127 
H     2.6302255   -1.3500034   -0.9076800 
H     2.3132352   -0.7204887   -2.5353802 
C    -0.3824840   -1.3717263   -2.6582832 
O    -0.0309520   -0.8033987   -3.8787997 
O    -1.7238522   -1.4735013   -2.3205686 
H    -2.2830552   -1.1086685   -3.0813233 
N     1.2613757   -3.1768085   -2.1332403 
H     0.1628305   -2.0071008   -0.7182891 
H     1.1465298   -3.8832251   -1.3691854 
H     0.7499623   -3.5625063   -2.9648018 
