24
Energy =
C     0.9012196    2.6451351   -1.1934431 
C     0.0756570    2.8056392   -0.1334709 
C    -0.1551407    1.7714612    0.7074643 
C     1.5078209    1.4503661   -1.4110413 
C     1.2916452    0.4083930   -0.5602161 
C     0.4484660    0.5740532    0.4969508 
O    -0.5459687    4.0310239    0.0849934 
H     0.0349323    4.6293688    0.6619638 
H     0.2445461   -0.2541496    1.1715962 
H     2.1623770    1.3330763   -2.2710529 
H     1.0644995    3.4784956   -1.8680884 
H    -0.8324491    1.9079149    1.5438568 
C     1.9466630   -0.9321612   -0.8136853 
C     1.0748055   -1.8298609   -1.7116674 
H     2.1395173   -1.4551090    0.1505934 
H     2.9438958   -0.7759410   -1.2838574 
C     1.8498595   -3.0601196   -2.1976801 
O     2.9347746   -3.5363403   -1.4699855 
O     1.4535286   -3.7552517   -3.3398533 
H     0.6334574   -3.3476862   -3.7647671 
N    -0.1503069   -2.1879053   -0.9665297 
H     0.8102070   -1.2469875   -2.6250801 
H    -0.9901068   -1.8269707   -1.4777576 
H    -0.2675960   -3.2273312   -0.8829232 
