24
Energy =
C    -0.6487725    2.0151714   -1.3977174 
C    -0.8614169    2.3674987   -0.1089912 
C    -0.1117569    1.8201450    0.8749272 
C     0.3205272    1.1170752   -1.7081216 
C     1.0813392    0.5624163   -0.7232951 
C     0.8593732    0.9210540    0.5724457 
O    -1.8570405    3.2866071    0.2060165 
H    -1.4908819    4.2321889    0.1871292 
H     1.4556820    0.4923507    1.3735941 
H     0.4827321    0.8446242   -2.7481027 
H    -1.2636282    2.4554865   -2.1752246 
H    -0.2982149    2.1057744    1.9049129 
C     2.1551887   -0.4465598   -1.0710569 
C     1.5586231   -1.8192248   -1.4753528 
H     2.8682072   -0.5810263   -0.2262398 
H     2.7585179   -0.0355432   -1.9139800 
C     2.6247286   -2.7033510   -2.1165410 
O     2.6889776   -2.7851220   -3.5026593 
O     3.5853173   -3.3728112   -1.3584324 
H     3.4110072   -3.2572099   -0.3709317 
N     0.9268367   -2.4970204   -0.3208348 
H     0.8022398   -1.6571590   -2.2802310 
H     0.9499653   -1.9151024    0.5486787 
H    -0.0858481   -2.6704993   -0.5270085 
