24
Energy =
C     0.3660031    2.6094027   -1.4779416 
C    -0.1675030    2.8745687   -0.2644170 
C    -0.0095076    1.9819460    0.7484249 
C     1.0556282    1.4609839   -1.6897594 
C     1.2189725    0.5617131   -0.6791923 
C     0.6822105    0.8324598    0.5432115 
O    -0.8713687    4.0697764   -0.0853518 
H    -1.2568305    4.1882414    0.8450584 
H     0.7862140    0.1208457    1.3587029 
H     1.4723111    1.2672697   -2.6741098 
H     0.2315815    3.3261353   -2.2802083 
H    -0.4414297    2.1821001    1.7224808 
C     1.9856134   -0.7263478   -0.9153456 
C     1.0990589   -1.8860996   -1.4286198 
H     2.5000677   -1.0370858    0.0216920 
H     2.7961214   -0.5392546   -1.6536460 
C     0.1484501   -2.4094911   -0.3577684 
O     0.3147081   -3.6950064    0.1391465 
O    -0.8979822   -1.6368402    0.1264073 
H    -1.7045859   -1.7981031   -0.4578566 
N     0.3868053   -1.4813569   -2.6545124 
H     1.7743624   -2.7413144   -1.6668006 
H     1.0862493   -1.2225019   -3.3897773 
H    -0.1391115   -2.3039761   -3.0351010 
