24
Energy =
C    -0.2111993    2.1692096   -1.4857966 
C    -0.1004270    2.7226612   -0.2563468 
C     0.6579684    2.1232308    0.6897615 
C     0.4421843    1.0153589   -1.7759652 
C     1.2100791    0.4066675   -0.8293342 
C     1.3148157    0.9693491    0.4073948 
O    -0.7733788    3.9042652    0.0380425 
H    -0.2018701    4.7092672   -0.1937430 
H     1.9219349    0.5021254    1.1788057 
H     0.3444814    0.5834572   -2.7685398 
H    -0.8304066    2.6562532   -2.2312236 
H     0.7316712    2.5732221    1.6742921 
C     1.9301681   -0.8852924   -1.1511419 
C     0.9634271   -2.0965600   -1.2195552 
H     2.7317783   -1.0976496   -0.4062890 
H     2.4579910   -0.7647274   -2.1243164 
C     1.6473670   -3.3114926   -1.8299813 
O     2.9988076   -3.5498901   -1.6108263 
O     0.9352433   -4.1852452   -2.6421264 
H     0.8345870   -3.7778670   -3.5584538 
N     0.4251507   -2.4331918    0.1147468 
H     0.1263681   -1.8459029   -1.9116227 
H     0.7292719   -1.7628277    0.8573342 
H    -0.6211761   -2.4035478    0.0913120 
