24
Energy =
C    -1.1216599    1.9840018   -0.5316803 
C    -1.0532120    1.7196800    0.7938048 
C    -0.0010826    1.0321775    1.2933026 
C    -0.1385760    1.5536271   -1.3655086 
C     0.9231964    0.8615841   -0.8684909 
C     0.9838264    0.5990800    0.4663037 
O    -2.0620648    2.1623260    1.6436841 
H    -2.8194244    1.4888820    1.6852353 
H     1.8184685    0.0361760    0.8772631 
H    -0.1996095    1.7692500   -2.4291721 
H    -1.9684122    2.5468522   -0.9102436 
H     0.0460089    0.8298953    2.3581494 
C     2.0094681    0.3625374   -1.7945575 
C     1.7395242   -1.0835096   -2.2614683 
H     2.9987132    0.4110361   -1.2834417 
H     2.0982899    1.0388830   -2.6751923 
C     2.6394607   -1.4551478   -3.4392970 
O     3.8359718   -2.1248467   -3.2174256 
O     2.3040304   -1.0944280   -4.7443018 
H     1.4449523   -0.5693738   -4.7958855 
N     1.8977033   -1.9998576   -1.1157408 
H     0.6954076   -1.1603214   -2.6420090 
H     1.7153095   -2.9824697   -1.4332403 
H     2.8987274   -1.9918358   -0.8015324 
