24
Energy =
C    -0.7347995    1.7782456    0.4639197 
C    -0.3059051    2.8472993   -0.2430039 
C     0.8230461    2.7467234   -0.9926996 
C    -0.0439277    0.6096007    0.4320472 
C     1.0842214    0.4979021   -0.3229531 
C     1.5155932    1.5798704   -1.0316711 
O    -1.0407154    4.0353468   -0.1790497 
H    -0.6650955    4.7873338   -0.7456952 
H     2.4173687    1.5208365   -1.6354080 
H    -0.4147176   -0.2407611    1.0006872 
H    -1.6424887    1.8689986    1.0520368 
H     1.1737921    3.6006519   -1.5614368 
C     1.8724710   -0.8017173   -0.3561836 
C     1.2280642   -1.9376787   -1.2002804 
H     2.0211420   -1.1586327    0.6881729 
H     2.8959018   -0.6159038   -0.7506027 
C    -0.0049097   -2.5329233   -0.5357022 
O     0.1136889   -3.6919304    0.2185588 
O    -1.2377309   -1.8954510   -0.5878911 
H    -1.7311522   -2.2369057   -1.4009191 
N     0.9545216   -1.5244970   -2.5954859 
H     1.9616418   -2.7783176   -1.2102050 
H     1.2174374   -0.5303569   -2.7816082 
H     1.5144261   -2.1114516   -3.2575535 
