24
Energy =
C    -0.7603295    1.9286466   -1.4984693 
C    -1.0975263    2.1673529   -0.2099967 
C    -0.3892454    1.5978102    0.7920088 
C     0.2939432    1.1246522   -1.7898606 
C     1.0184152    0.5556210   -0.7862001 
C     0.6664002    0.7928360    0.5085238 
O    -2.1805466    2.9887664    0.0850097 
H    -1.8862436    3.9561427    0.1637382 
H     1.2227999    0.3335146    1.3221544 
H     0.5522223    0.9370762   -2.8294223 
H    -1.3457630    2.3814311   -2.2915574 
H    -0.6787943    1.7865591    1.8205503 
C     2.1804637   -0.3574023   -1.1105490 
C     1.7142544   -1.7850057   -1.4646001 
H     2.8932586   -0.4005411   -0.2561730 
H     2.7496118    0.0773638   -1.9645215 
C     2.8672228   -2.5803461   -2.0708979 
O     2.9134644   -2.7592556   -3.4473502 
O     3.9007900   -3.0942291   -1.2888538 
H     3.7491333   -2.8991003   -0.3094970 
N     1.1683058   -2.4388348   -0.2599670 
H     0.9302153   -1.7330104   -2.2575461 
H     0.2473265   -2.0004648   -0.0213764 
H     0.9476856   -3.4407294   -0.4803114 
