24
Energy =
C    -0.1596337    1.8095972    0.8678283 
C    -0.3439054    2.6905920   -0.1515235 
C     0.2124527    2.4416347   -1.3587610 
C     0.5790900    0.6876608    0.6748929 
C     1.1426901    0.4383503   -0.5395272 
C     0.9520062    1.3212463   -1.5576832 
O    -1.0997584    3.8557358    0.0135469 
H    -1.4822692    3.9718043    0.9457056 
H     1.3891181    1.1374935   -2.5361341 
H     0.7121907   -0.0088437    1.4989179 
H    -0.6037482    1.9997042    1.8389454 
H     0.0563486    3.1515293   -2.1637945 
C     1.9538047   -0.8178618   -0.7665284 
C     1.1541251   -1.9069976   -1.5225755 
H     2.3257214   -1.2333676    0.1983562 
H     2.8657109   -0.5531653   -1.3485329 
C     2.0597846   -3.0586248   -1.9234497 
O     2.1702229   -3.4317969   -3.2586189 
O     2.8185925   -3.7226906   -0.9646234 
H     3.3380482   -4.4641644   -1.4165482 
N     0.0232214   -2.3865414   -0.7085600 
H     0.7621964   -1.4865067   -2.4773421 
H     0.3692327   -2.7280099    0.2201260 
H    -0.6540932   -1.6070275   -0.5379521 
