24
Energy =
C    -0.3051177    2.3681328   -1.4012074 
C    -0.7237113    2.4274009   -0.1163981 
C    -0.2366437    1.5547071    0.7951088 
C     0.6110755    1.4415390   -1.7778043 
C     1.1150996    0.5640122   -0.8641045 
C     0.6826198    0.6262208    0.4269959 
O    -1.6616411    3.3812003    0.2661622 
H    -1.2063006    4.2453859    0.5381466 
H     1.0597224   -0.0722564    1.1706909 
H     0.9332558    1.4051477   -2.8148910 
H    -0.7147310    3.0636320   -2.1249347 
H    -0.5939465    1.6005934    1.8187572 
C     2.1321453   -0.4797274   -1.2828072 
C     1.5009858   -1.8532001   -1.6242843 
H     2.8827333   -0.6082985   -0.4706287 
H     2.7088284   -0.1156694   -2.1621586 
C     0.8443945   -2.5112340   -0.4053518 
O    -0.5143907   -2.3399256   -0.1621854 
O     1.6063744   -3.2060651    0.5370427 
H     2.5771735   -3.2692430    0.2693408 
N     0.5800133   -1.7437014   -2.7696104 
H     2.3266316   -2.5325015   -1.9316377 
H    -0.2677915   -1.1869243   -2.5033963 
H     1.0485350   -1.2510106   -3.5653766 
