24
Energy =
C    -0.1207063    1.4260974    1.0649130 
C     0.0530099    2.6122222    0.4247745 
C     0.7957480    2.6595351   -0.7037669 
C     0.4488083    0.2962038    0.5743188 
C     1.1908630    0.3386034   -0.5684718 
C     1.3650285    1.5324640   -1.2014918 
O    -0.5153764    3.7961338    0.9060749 
H    -1.0811827    3.6739503    1.7390302 
H     1.9589395    1.5967526   -2.1089741 
H     0.2977135   -0.6436453    1.1001395 
H    -0.7171261    1.3776883    1.9694773 
H     0.9267573    3.6130510   -1.2037407 
C     1.8281372   -0.9242566   -1.1226110 
C     0.8357791   -1.8568198   -1.8702445 
H     2.3020518   -1.4839038   -0.2851065 
H     2.6621238   -0.6650295   -1.8122967 
C    -0.2568260   -2.3981611   -0.9456561 
O    -1.4955212   -1.7710176   -0.8731750 
O    -0.0003810   -3.4590534   -0.0737414 
H     0.9243900   -3.8420565   -0.1995476 
N     0.2623398   -1.2050621   -3.0666214 
H     1.4176763   -2.7483183   -2.1998054 
H     0.6052113   -0.2274464   -3.2027780 
H     0.5178328   -1.7420295   -3.9281544 
