24
Energy =
C     0.0974045    2.5663106   -1.3781977 
C    -0.3871851    2.6757003   -0.1206163 
C    -0.1221141    1.7139403    0.7922876 
C     0.8573388    1.4979395   -1.7258642 
C     1.1320333    0.5224658   -0.8125344 
C     0.6398119    0.6428795    0.4532738 
O    -1.1609028    3.7768213    0.2335590 
H    -0.5757843    4.5385289    0.5579214 
H     0.8420608   -0.1184611    1.2010954 
H     1.2428691    1.4327761   -2.7393763 
H    -0.1313918    3.3388734   -2.1033204 
H    -0.5291351    1.8056146    1.7939243 
C     1.9882369   -0.6730148   -1.1944952 
C     1.1754681   -1.9546654   -1.5303669 
H     2.6956060   -0.8910010   -0.3634842 
H     2.6298583   -0.4183287   -2.0674791 
C     0.3613649   -2.4655853   -0.3503254 
O    -0.9361263   -2.0251548   -0.1213517 
O     0.9503546   -3.3240582    0.5715488 
H     1.5454004   -2.7920157    1.1877729 
N     0.3363959   -1.7792790   -2.7359648 
H     1.9132465   -2.7704586   -1.7169260 
H     0.3996926   -0.8186347   -3.1417652 
H     0.6339252   -2.4477683   -3.4848403 
