23
UFF-Energy = 0.0900163
C    -5.9171819    1.9739991    0.1615613 
C    -5.8268195    0.6211246    0.1941456 
C    -4.6372508    0.0070226    0.0480056 
C    -4.7985002    2.7599549   -0.0176817 
C    -3.5935724    2.1050133   -0.1630568 
C    -3.5200614    0.7510345   -0.1317561 
H    -2.6677621    2.6317517   -0.3648551 
H    -2.5596207    0.2636590   -0.2627443 
H    -6.7120652    0.0137037    0.3496226 
H    -6.9001930    2.3942202    0.3407284 
O    -4.5903260   -1.3908810    0.0864663 
H    -3.6587477   -1.7736098   -0.0302490 
C    -4.8813450    4.1459032   -0.0503511 
C    -6.0539175    4.7914506   -0.3827725 
C    -6.1274357    6.1440744   -0.4144467 
C    -5.0456066    6.8918967   -0.1152018 
C    -3.8832493    6.2932046    0.2159149 
C    -3.7949897    4.9414804    0.2481592 
H    -2.8474198    4.5296460    0.5748728 
H    -3.0171457    6.8994702    0.4683729 
H    -6.9447957    4.2545833   -0.6867091 
H    -7.0589624    6.6302579   -0.6925328 
H    -5.1105017    7.9764441   -0.1407781 
