13
UFF-Energy = 0.0741127
C    -5.1843662    2.4987799    0.2090664 
C    -4.0811760    1.4392066   -0.0394042 
H    -4.7567640    3.5150027    0.3626993 
H    -5.8087975    2.2604651    1.0975924 
H    -5.8652197    2.5585690   -0.6685322 
C    -2.6745998    2.0375962   -0.1068057 
N    -4.1761441    0.3702459    0.9685865 
H    -4.2264867    0.9861962   -1.0522543 
H    -4.1011324    0.7612592    1.9377967 
H    -5.1055784   -0.1082235    0.8929234 
O    -1.9536533    1.9409211   -1.2905007 
O    -2.1063015    2.7137873    0.9730218 
H    -2.7236206    2.7245434    1.7690518 
