13
UFF-Energy = 0.0639472
C    -5.2887540    1.8883834   -0.2699021 
C    -3.8489335    1.3956744   -0.0305798 
H    -5.3001365    2.7565006   -0.9657509 
H    -5.7452183    2.2057252    0.6941298 
H    -5.9140511    1.0857029   -0.7140833 
C    -2.9419770    2.5276746    0.4842555 
N    -3.8986600    0.2495478    0.8965014 
H    -3.4144798    1.0793192   -1.0080166 
H    -4.6736782   -0.4059447    0.6336769 
H    -3.0290878   -0.3228183    0.7877656 
O    -3.3035949    3.8520736    0.2584689 
O    -1.7026990    2.2817880    1.0763783 
H    -1.5427399    1.2998456    1.2285335 
