13
UFF-Energy = 0.0608696
C    -4.6643945    2.6975328    0.6607623 
C    -4.2797271    1.3837749   -0.0288386 
H    -3.9903495    2.9135596    1.5162292 
H    -5.7010042    2.6189763    1.0551793 
H    -4.6209327    3.5454585   -0.0572496 
C    -2.8932926    1.4407348   -0.6773496 
N    -4.4253804    0.2888734    0.9430876 
H    -4.9976005    1.2139350   -0.8675810 
H    -4.2777769   -0.6287052    0.4560352 
H    -3.6941190    0.3531204    1.6897630 
O    -2.7888600    1.3002908   -2.0549588 
O    -1.7306515    1.6521257    0.0649284 
H    -1.9176611    1.7301231    1.0517529 
