13
UFF-Energy = 0.0656779
C    -5.1726905    2.1155556    0.5281453 
C    -4.0201683    1.3655019   -0.1452566 
H    -4.9439749    2.3094057    1.5979010 
H    -6.0961562    1.4983711    0.4798727 
H    -5.3647299    3.0827403    0.0141004 
C    -2.7333645    2.1846194   -0.1599200 
N    -3.8657981    0.0663975    0.5278677 
H    -4.2861033    1.1943117   -1.2165232 
H    -3.1531040   -0.5026297    0.0102598 
H    -3.4665613    0.2127413    1.4872810 
O    -2.3682740    2.8740251   -1.3071698 
O    -1.9482246    2.3027856    0.9803538 
H    -2.3693306    2.9760614    1.6024280 
