13
UFF-Energy = 0.0833208
C    -5.2103672    2.3153068   -0.1249028 
C    -3.8600575    1.5442820   -0.1031273 
H    -5.1248107    3.3062809    0.3785707 
H    -6.0407210    1.7796389    0.3775889 
H    -5.5256502    2.5036199   -1.1736296 
C    -2.7303931    2.3758211    0.5020128 
N    -4.0005103    0.2107143    0.5300479 
H    -3.5331946    1.3804353   -1.1587334 
H    -3.3613787    0.0973767    1.3526426 
H    -4.9659341   -0.0005217    0.8719794 
O    -1.5115361    2.4758683   -0.1535736 
O    -2.9001543    3.0255857    1.7183134 
H    -2.7589422    2.3629808    2.4658624 
