13
UFF-Energy = -0.0223695
C    -4.5864709    2.8368067    0.2699956 
C    -4.2805896    1.3636377    0.0005209 
H    -3.9044412    3.1244223    1.1009363 
H    -5.6530996    3.0038414    0.5162357 
H    -4.2848169    3.4308241   -0.6143425 
C    -2.8118485    1.2946333   -0.4404010 
N    -4.7248929    0.5289704    1.1641577 
H    -4.8426048    1.0137145   -0.8846020 
H    -4.0082738    0.0319261    1.7483017 
H    -5.2731824    1.1090011    1.8346877 
O    -2.4929254    1.3794889   -1.7905932 
O    -1.7902499    1.3461214    0.4898239 
H    -2.3333340    0.8319741    1.2396555 
