13
UFF-Energy = 0.0767363
C    -4.9345509    2.2320564   -0.6679387 
C    -3.9860647    1.3483119    0.1833716 
H    -4.5707128    3.2824961   -0.7383668 
H    -5.9613258    2.2747602   -0.2448984 
H    -5.0109376    1.8341960   -1.7027090 
C    -2.7415270    2.0857384    0.6659161 
N    -4.7241348    0.7651588    1.3132557 
H    -3.5933016    0.5197500   -0.4534093 
H    -5.1077904    1.5355741    1.9141538 
H    -5.5391601    0.2125148    0.9552704 
O    -2.8316787    3.3731748    1.1815393 
O    -1.5108048    1.4447236    0.6660449 
H    -1.4626308    0.8583098    1.4866667 
