13
UFF-Energy = 0.0730664
C    -5.2237826    2.2000229    0.8578799 
C    -4.2333838    1.5448443   -0.1207547 
H    -5.8031108    2.9964519    0.3412076 
H    -4.6819650    2.6649531    1.7120811 
H    -5.9408157    1.4489931    1.2521454 
C    -3.2602559    2.5540921   -0.7160493 
N    -3.5212349    0.4532501    0.5589026 
H    -4.8026289    1.1272595   -0.9846149 
H    -3.0071203    0.8264569    1.3938064 
H    -4.2080080   -0.2583205    0.9039129 
O    -2.5688029    3.4362308    0.1065292 
O    -3.0222668    2.5727264   -2.0837305 
H    -2.3389042    1.8607145   -2.2989877 
