13
UFF-Energy = 0.0672625
C    -5.0787621    2.6648033    0.3987960 
C    -4.2205628    1.4573739   -0.0203383 
H    -5.0717583    3.4416515   -0.3991346 
H    -4.6923580    3.1263581    1.3330218 
H    -6.1331221    2.3552780    0.5677387 
C    -2.7841558    1.8505203   -0.3675081 
N    -4.2799044    0.4255533    1.0281122 
H    -4.6263798    1.0322663   -0.9724760 
H    -4.0530633    0.8303072    1.9673836 
H    -5.2532478    0.0426890    1.0912045 
O    -2.3641690    1.7633197   -1.6889052 
O    -1.8961677    2.3476260    0.5863373 
H    -2.3096289    2.3652525    1.5040145 
