13
UFF-Energy = 0.073092
C    -5.1553349    2.1967197   -0.2049915 
C    -3.9123781    1.3085725   -0.0111761 
H    -6.0611210    1.5669689   -0.3419837 
H    -5.0443378    2.8433520   -1.1024177 
H    -5.3029350    2.8509091    0.6837149 
C    -2.6427532    2.1480150    0.0918849 
N    -4.1061458    0.4005044    1.1434233 
H    -3.7699120    0.6811045   -0.9231853 
H    -3.3838429    0.5664305    1.8873929 
H    -5.0304146    0.5406130    1.6159301 
O    -2.3566477    2.8533918    1.2535409 
O    -1.7995292    2.2767211   -1.0033381 
H    -2.1997078    2.9354466   -1.6546253 
