13
UFF-Energy = 0.0664735
C    -5.2697018    2.2202262    0.3804362 
C    -4.0617995    1.4447030   -0.1607539 
H    -5.4003559    3.1785608   -0.1676714 
H    -5.1191710    2.4477128    1.4601889 
H    -6.1981923    1.6207960    0.2738931 
C    -2.7758113    2.2839573   -0.1315732 
N    -3.9251815    0.2119814    0.6278510 
H    -4.2626176    1.1901622   -1.2272257 
H    -4.7527626   -0.4062413    0.4524611 
H    -3.0869980   -0.3263930    0.3020848 
O    -2.6517762    3.3498491    0.7539298 
O    -1.7035021    1.9866315   -0.9742079 
H    -1.8888002    1.1790169   -1.5495045 
