13
UFF-Energy = 0.0636217
C    -5.3392145    2.1214987   -0.1958162 
C    -3.9961159    1.3898108   -0.0709745 
H    -5.3162599    2.8449965   -1.0412629 
H    -5.5689062    2.6759491    0.7405950 
H    -6.1614470    1.3974875   -0.3811972 
C    -2.8336818    2.3750650    0.0687811 
N    -4.0800740    0.4663683    1.0716318 
H    -3.8033816    0.8186890   -1.0122374 
H    -4.8175626   -0.2542640    0.8828680 
H    -3.1788974   -0.0643674    1.1561579 
O    -2.0265588    2.6294423   -1.0325700 
O    -2.5824405    3.0523235    1.2605579 
H    -3.2349198    2.7657537    1.9760398 
