13
UFF-Energy = 0.07363
C    -4.9689479    2.5996735   -0.0757375 
C    -4.0223666    1.3874897   -0.1500108 
H    -4.6113541    3.4205425   -0.7345315 
H    -5.0212987    2.9834701    0.9683067 
H    -5.9911402    2.3119282   -0.4047754 
C    -2.5938114    1.7767401    0.2182131 
N    -4.5528002    0.2732167    0.6698133 
H    -3.9615887    1.0390231   -1.2088161 
H    -3.8867542    0.0117454    1.4384770 
H    -5.4514537    0.5164229    1.1497670 
O    -2.2465765    2.0103634    1.5425355 
O    -1.6461078    1.9777138   -0.7759108 
H    -1.7970599    2.8813597   -1.1989491 
