13
UFF-Energy = 0.0619484
C    -5.2154431    2.3641237   -0.0741612 
C    -4.0319859    1.3934051   -0.1178621 
H    -5.1279490    3.1260241   -0.8789854 
H    -5.2705858    2.8742082    0.9113834 
H    -6.1627971    1.8009956   -0.2210018 
C    -2.6894641    2.1093723   -0.0118106 
N    -4.2245031    0.3935256    0.9429690 
H    -4.0316091    0.8814966   -1.1108763 
H    -3.5059164   -0.3614522    0.8305010 
H    -4.0336254    0.8315813    1.8776422 
O    -1.8296941    2.1327671   -1.1002317 
O    -2.3169849    2.7567051    1.1601187 
H    -2.8041818    3.6378245    1.2201230 
