13
UFF-Energy = 0.0433528
C    -5.2740365    2.0713702   -0.3616905 
C    -3.9309918    1.3745831   -0.1047240 
H    -6.0489253    1.3325297   -0.6539857 
H    -5.1734179    2.8301048   -1.1686773 
H    -5.6048611    2.5941354    0.5625308 
C    -2.8025505    2.3690274    0.1684891 
N    -4.1187339    0.4378029    1.0136015 
H    -3.6259553    0.8186789   -1.0217091 
H    -4.7512512   -0.3389973    0.7090137 
H    -3.2000849   -0.0121674    1.2472291 
O    -1.5370716    1.9048992    0.5114503 
O    -2.9933370    3.7369966   -0.0014212 
H    -2.1295830    4.2139095    0.2236715 
