13
UFF-Energy = 0.0395549
C    -5.3565879    2.0413510    0.1754095 
C    -3.9754586    1.4408396   -0.1127447 
H    -5.4984432    2.9860130   -0.3922604 
H    -5.4417863    2.2669791    1.2624462 
H    -6.1593721    1.3282110   -0.1057146 
C    -2.8491856    2.4273902    0.1804933 
N    -3.8379197    0.2099652    0.6793910 
H    -3.9009309    1.2046955   -1.2004917 
H    -4.5071889   -0.5085787    0.3157292 
H    -2.8790924   -0.1880973    0.5288149 
O    -1.6284949    2.2916724   -0.4705694 
O    -3.0109034    3.4549530    1.1036353 
H    -2.1403461    3.9655391    1.1704245 
