13
UFF-Energy = 0.0631076
C    -5.1901942    2.2583173    0.8175051 
C    -4.1688200    1.6735035   -0.1799040 
H    -5.5145114    1.4971396    1.5598912 
H    -6.0961347    2.6086332    0.2791004 
H    -4.7723945    3.1195719    1.3864579 
C    -2.8360184    2.4146917   -0.1459468 
N    -4.0155311    0.2353664    0.0922780 
H    -4.5692837    1.8068586   -1.2134354 
H    -3.4325865   -0.1998301   -0.6615128 
H    -3.4824326    0.1060990    0.9882952 
O    -2.1027184    2.4827767    1.0309126 
O    -2.3381626    3.0180526   -1.2917157 
H    -1.9079119    2.3149566   -1.8741544 
