13
UFF-Energy = 0.076229
C    -5.3275361    2.0843493   -0.1034373 
C    -3.9428045    1.3960788   -0.0844121 
H    -6.0017761    1.6644795    0.6749054 
H    -5.8145638    1.9480667   -1.0916948 
H    -5.2562230    3.1770666    0.0989483 
C    -2.7947713    2.3870750    0.1424194 
N    -3.9737595    0.3326086    0.9330507 
H    -3.7470199    0.9427249   -1.0840020 
H    -4.6156133   -0.4300119    0.6118277 
H    -3.0249529   -0.1076082    1.0150480 
O    -1.6195148    1.9802910    0.7621673 
O    -2.8465334    3.6619496   -0.4117277 
H    -2.6427914    3.6003833   -1.3983787 
