13
Energy =
C    -5.3105119    2.2265924    0.1630930 
C    -4.0376692    1.4401360   -0.1767071 
H    -6.2144268    1.6263838   -0.0725625 
H    -5.3540286    3.1764019   -0.4132010 
H    -5.3232768    2.4724134    1.2491188 
C    -2.7676866    2.2824067    0.0157161 
N    -4.0188054    0.2290654    0.6557667 
H    -4.0817567    1.1569116   -1.2539225 
H    -4.8187250   -0.3911684    0.3849230 
H    -3.1474890   -0.3205641    0.4632299 
O    -2.7779364    3.3872241    0.8613064 
O    -1.5800701    1.9531041   -0.6395638 
H    -1.6780874    1.1211163   -1.2015007 
