13
Energy =
C    -5.0913565    1.9480899   -0.6133333 
C    -3.9115033    1.3023375    0.1230115 
H    -5.8311259    1.1778157   -0.9155677 
H    -4.7410547    2.4869469   -1.5201942 
H    -5.5954760    2.6794929    0.0572994 
C    -2.8201032    2.3109593    0.4675517 
N    -4.4357855    0.6369722    1.3251769 
H    -3.4264875    0.5543919   -0.5483357 
H    -5.0069270   -0.1918541    1.0374056 
H    -3.6327029    0.2554610    1.8835955 
O    -3.0721126    3.6799292    0.4751835 
O    -1.5481896    1.8558363    0.7905354 
H    -0.9642950    2.6542105    1.0050196 
