24
Energy =
C     0.5267983    2.5567110   -0.5821797 
C    -0.6122471    2.4307949    0.1369328 
C    -0.9912767    1.2165867    0.5974042 
C     1.3013223    1.4696611   -0.8289066 
C     0.9352631    0.2461489   -0.3545660 
C    -0.2235098    0.1235423    0.3509715 
O    -1.4006328    3.5474884    0.3955331 
H    -1.1282680    3.9859963    1.2681159 
H    -0.5440010   -0.8501660    0.7119648 
H     2.2066230    1.5839280   -1.4216276 
H     0.8069631    3.5319740   -0.9655722 
H    -1.9188290    1.1293656    1.1538575 
C     1.7839743   -0.9729110   -0.6484620 
C     1.2716615   -1.7532055   -1.8826246 
H     1.7882699   -1.6419299    0.2399535 
H     2.8434738   -0.6735881   -0.8218040 
C     1.2826600   -0.8836673   -3.1320042 
O     2.4831989   -0.4250536   -3.6641479 
O     0.0856188   -0.5078449   -3.7251536 
H     0.2880981    0.0691970   -4.5313775 
N     2.0312474   -3.0175348   -2.0525824 
H     0.1987958   -2.0134182   -1.7318111 
H     2.5695965   -3.0150885   -2.9542303 
H     2.7453026   -3.1649573   -1.3014901 
