24
Energy =
C     0.8088274    2.5420564   -0.1755344 
C    -0.3422928    2.3778367    0.5161820 
C    -0.7998519    1.1332211    0.7837271 
C     1.5052886    1.4601024   -0.6070601 
C     1.0527035    0.2030849   -0.3394851 
C    -0.1092615    0.0461998    0.3546941 
O    -1.0538159    3.4883857    0.9579123 
H    -1.7361536    3.7738562    0.2636178 
H    -0.4921454   -0.9481188    0.5682268 
H     2.4202571    1.6084973   -1.1772104 
H     1.1644825    3.5454901   -0.3839691 
H    -1.7222183    1.0163175    1.3428313 
C     1.8092123   -1.0061880   -0.8474688 
C     1.2760984   -1.4836612   -2.2196173 
H     1.7262101   -1.8315160   -0.1065369 
H     2.8949711   -0.7694416   -0.9377512 
C     1.4455281   -0.4132276   -3.2855762 
O     0.3405014    0.0623168   -3.9790425 
O     2.7001903    0.1085745   -3.5724825 
H     3.1369284   -0.5004945   -4.2489260 
N     1.9470602   -2.7357045   -2.6332373 
H     0.1763023   -1.6545763   -2.1347400 
H     2.6404766   -3.0800232   -1.9274991 
H     1.2357539   -3.4951487   -2.7562607 
