24
Energy =
C     1.6917441    2.6912608   -0.2398505 
C     0.3603187    2.8596575   -0.0677897 
C    -0.4723577    1.7965355   -0.1484265 
C     2.1953162    1.4584509   -0.5025698 
C     1.3618435    0.3846131   -0.5942279 
C     0.0234590    0.5604466   -0.4108305 
O    -0.1520278    4.1247024    0.2023670 
H    -0.3703012    4.6141102   -0.6584957 
H    -0.6570357   -0.2858133   -0.4694783 
H     3.2679079    1.3383727   -0.6320624 
H     2.3486092    3.5504171   -0.1586958 
H    -1.5365826    1.9430060    0.0040219 
C     1.9158644   -0.9955738   -0.8689064 
C     2.0050763   -1.8562201    0.4147177 
H     2.9198322   -0.9323777   -1.3472174 
H     1.2586212   -1.5007159   -1.6134738 
C     2.3098660   -3.3018754    0.0705821 
O     3.5486358   -3.6600599   -0.4528399 
O     1.3180050   -4.2670084    0.1948790 
H     1.7002902   -5.1645309   -0.0744904 
N     3.0075085   -1.3067351    1.3458644 
H     1.0121209   -1.8837764    0.9212337 
H     3.9359066   -1.2185950    0.8669933 
H     2.7165545   -0.3536531    1.6666709 
