24
Energy =
C     1.4153812    2.6473108   -0.2238927 
C     0.0924768    2.7526523    0.0405064 
C    -0.6961055    1.6543630   -0.0036852 
C     1.9531584    1.4431171   -0.5452082 
C     1.1628301    0.3351986   -0.6064906 
C    -0.1659538    0.4470726   -0.3254488 
O    -0.4552899    3.9890371    0.3677318 
H    -0.7470014    4.4851299   -0.4670723 
H    -0.8101503   -0.4295337   -0.3470776 
H     3.0184539    1.3713925   -0.7484082 
H     2.0384419    3.5333247   -0.1680049 
H    -1.7520743    1.7479209    0.2276806 
C     1.7648814   -1.0127103   -0.9424714 
C     2.3695270   -1.7041464    0.3041923 
H     2.5569127   -0.8770853   -1.7118580 
H     0.9962467   -1.6793597   -1.3978174 
C     1.3194067   -1.9734678    1.3701258 
O     0.1295453   -2.6250785    1.0534807 
O     1.5299212   -1.5405445    2.6743800 
H     0.7395368   -1.8182814    3.2410183 
N     3.0552809   -2.9579718   -0.0783804 
H     3.0977328   -1.0054794    0.7809018 
H     3.0413887   -3.1348513   -1.1106161 
H     4.0598025   -2.9186103    0.2153034 
