24
Energy =
C     1.9201156    2.5627233   -0.5935883 
C     0.7426733    2.9816745   -0.0573896 
C    -0.2259087    2.0786682    0.2163956 
C     2.1203155    1.2463819   -0.8566942 
C     1.1409129    0.3376906   -0.5935170 
C    -0.0326912    0.7617509   -0.0468445 
O     0.5030439    4.3307913    0.2216498 
H     1.2829201    4.9423757    0.0062910 
H    -0.8195154    0.0496388    0.1947091 
H     3.0707006    0.9261928   -1.2770824 
H     2.7053046    3.2792090   -0.8101397 
H    -1.1560220    2.4236038    0.6552010 
C     1.3729554   -1.1337575   -0.8660173 
C     1.9807323   -1.8543583    0.3517573 
H     2.0584970   -1.2518386   -1.7347959 
H     0.4191622   -1.6275815   -1.1581993 
C     1.0195007   -1.8739604    1.5358631 
O     1.4275510   -1.3938539    2.7709392 
O    -0.2791960   -2.3493460    1.3922632 
H    -0.2561271   -3.3573027    1.3582375 
N     2.3999094   -3.2050112   -0.0632810 
H     2.8825182   -1.2885886    0.6855347 
H     2.8960140   -3.6710652    0.7346155 
H     1.5632167   -3.7920780   -0.2932326 
