24
Energy =
C     1.1335839    2.1116669    0.9403117 
C     0.0152557    2.5126758    0.2933471 
C    -0.4612957    1.7904290   -0.7465212 
C     1.7719775    0.9759500    0.5584480 
C     1.2885398    0.2343081   -0.4777423 
C     0.1726019    0.6548154   -1.1357014 
O    -0.6387747    3.6743878    0.6904882 
H    -1.3201817    3.4748145    1.4143850 
H    -0.2166806    0.0895715   -1.9789533 
H     2.6805322    0.6703393    1.0747578 
H     1.5156727    2.7149701    1.7568369 
H    -1.3486972    2.1332393   -1.2685565 
C     2.0099369   -1.0194626   -0.9236436 
C     3.0948322   -0.7130518   -1.9830726 
H     1.2745102   -1.7412778   -1.3428613 
H     2.4755746   -1.5289074   -0.0492426 
C     4.1845850    0.1916947   -1.4357432 
O     4.8563297   -0.1393939   -0.2616366 
O     4.4777066    1.3920058   -2.0690691 
H     5.2434863    1.8407793   -1.5839177 
N     3.6596863   -1.9739540   -2.4938959 
H     2.6425894   -0.1487193   -2.8322351 
H     4.1003665   -2.5109957   -1.7082484 
H     2.9021375   -2.5675218   -2.9054490 
