24
Energy =
C     1.1609271    2.6405392   -0.4215862 
C    -0.1148352    2.5658949    0.0240812 
C    -0.6586000    1.3611911    0.3253083 
C     1.8891284    1.5060049   -0.5559509 
C     1.3568079    0.2930372   -0.2690429 
C     0.0753972    0.2246485    0.1864130 
O    -0.8710272    3.7247567    0.1664667 
H    -0.7549427    4.1170364    1.0944738 
H    -0.3705505   -0.7329561    0.4421044 
H     3.0015248    1.4505944   -0.9433477 
H     1.5887982    3.6052967   -0.6707476 
H    -1.6838963    1.3156835    0.6774553 
C     2.2246017   -0.9539985   -0.3913305 
C     3.1508385   -0.9599164   -1.6499510 
H     1.5657739   -1.8492591   -0.4228549 
H     2.8488831   -1.0454920    0.5252366 
C     4.2971463    0.0700608   -1.5687833 
O     4.0398275    1.4156432   -1.3052888 
O     5.6120181   -0.3095898   -1.7781808 
H     6.2012754    0.5103492   -1.7178405 
N     3.6602527   -2.3243336   -1.8821187 
H     2.5594785   -0.6508421   -2.5430612 
H     4.3506721   -2.5780237   -1.1337958 
H     2.8863355   -3.0280002   -1.8788059 
