24
Energy =
C     2.2132894    2.6384437    0.2606276 
C     0.9396083    3.0572751    0.4341234 
C    -0.0898500    2.2375967    0.0932847 
C     2.4683057    1.4090891   -0.2549796 
C     1.4417582    0.5851298   -0.6052065 
C     0.1595958    1.0070665   -0.4226281 
O     0.7179736    4.3320529    0.9630948 
H    -0.2610577    4.5675993    1.0837112 
H    -0.6730406    0.3574433   -0.6798580 
H     3.4987620    1.0822325   -0.3774425 
H     3.0257282    3.2989875    0.5455475 
H    -1.1141785    2.5634046    0.2368564 
C     1.7212135   -0.7949154   -1.1705517 
C     1.7539887   -1.8892810   -0.0811623 
H     2.6884608   -0.7954456   -1.7218806 
H     0.9447138   -1.0539969   -1.9227493 
C     2.8920903   -1.6790378    0.9167857 
O     2.7815872   -2.1336694    2.2269631 
O     4.1046174   -1.1367898    0.4968255 
H     4.7571261   -1.1558786    1.2719105 
N     0.4288647   -1.9690429    0.5637597 
H     1.9823282   -2.8604746   -0.5755522 
H    -0.2485588   -2.4020919   -0.1057630 
H     0.4784926   -2.6208120    1.3846857 
