24
Energy =
C     1.6642715    2.6257001   -0.0990889 
C     0.3565822    2.8398766    0.1752495 
C    -0.5274102    1.8188211    0.0972813 
C     2.0912505    1.3902996   -0.4653295 
C     1.2042653    0.3608288   -0.5621878 
C    -0.1084187    0.5810273   -0.2692479 
O    -0.0775556    4.1083046    0.5474565 
H    -0.3262870    4.6569567   -0.2681239 
H    -0.8276930   -0.2343026   -0.3146798 
H     3.1458620    1.2304078   -0.6745943 
H     2.3645190    3.4496226   -0.0143534 
H    -1.5699116    1.9981474    0.3387424 
C     1.6812003   -1.0236316   -0.9475766 
C     2.1928925   -1.8220868    0.2753609 
H     2.4975136   -0.9338601   -1.6983086 
H     0.8601977   -1.5922046   -1.4416221 
C     1.0968939   -2.0081051    1.3165149 
O    -0.0590531   -2.7174476    1.0064368 
O     1.2303024   -1.4429847    2.5771858 
H     0.4103643   -1.6697361    3.1247868 
N     2.7999888   -3.1062860   -0.1575067 
H     2.9801665   -1.2248791    0.7916179 
H     2.2802469   -3.9253082    0.2443352 
H     2.7662614   -3.2384012   -1.1957065 
