24
Energy =
C     1.4763746    2.3499336   -1.6650834 
C     0.2174413    2.8386839   -1.5817256 
C    -0.7305085    2.1540945   -0.9016190 
C     1.7970720    1.1831309   -1.0500848 
C     0.8528501    0.4978880   -0.3475422 
C    -0.4184305    0.9848062   -0.2870400 
O    -0.1056023    4.0416763   -2.2024714 
H     0.0365187    4.8219699   -1.5711846 
H    -1.1932567    0.4383459    0.2432130 
H     2.8071556    0.7904266   -1.1415628 
H     2.2195667    2.8944655   -2.2373418 
H    -1.7413237    2.5452379   -0.8639903 
C     1.2078784   -0.8185949    0.3148436 
C     1.1374074   -2.0634931   -0.6368005 
H     0.5296770   -0.9899635    1.1805136 
H     2.2079786   -0.7016065    0.7832919 
C     0.6501963   -1.7481791   -2.0596781 
O     1.5620146   -1.3862278   -3.0463372 
O    -0.7119040   -1.7496216   -2.3762115 
H    -1.2910798   -1.9766280   -1.5825515 
N     2.4233521   -2.7971674   -0.6769052 
H     0.3648568   -2.7474742   -0.2153990 
H     3.1763951   -2.3905681   -0.0773943 
H     2.2868630   -3.7906059   -0.3738653 
