24
Energy =
C     2.4263220    2.6937292    0.0801542 
C     1.3263725    3.3014911   -0.4214505 
C     0.2967716    2.5589678   -0.8890280 
C     2.5031422    1.3388588    0.1105322 
C     1.4684997    0.5845590   -0.3550444 
C     0.3661712    1.2036937   -0.8617502 
O     1.2518485    4.6906830   -0.4520520 
H     1.6493431    5.0509722   -1.3125592 
H    -0.4620791    0.6185940   -1.2534702 
H     3.3955777    0.8640926    0.5102920 
H     3.2410834    3.3017527    0.4574904 
H    -0.5810186    3.0575935   -1.2861284 
C     1.5593585   -0.9251696   -0.3420781 
C     2.2037504   -1.4649499   -1.6335170 
H     0.5480055   -1.3744804   -0.2168863 
H     2.1492696   -1.2546449    0.5429195 
C     2.5340819   -2.9417676   -1.4978165 
O     3.8448136   -3.3788873   -1.6407182 
O     1.5319920   -3.8652150   -1.2264859 
H     1.9434339   -4.7888696   -1.1761143 
N     1.3059365   -1.2015153   -2.7729182 
H     3.1765923   -0.9439103   -1.7976098 
H     1.7880460   -1.4859007   -3.6589147 
H     0.4596296   -1.8165801   -2.6929065 
