24
Energy =
C     1.5878883    2.7118971    0.0592946 
C     0.2594320    2.8955334   -0.1643463 
C    -0.5134433    1.8380730   -0.5007302 
C     2.1356336    1.4753218   -0.0555833 
C     1.3586487    0.4102384   -0.3962209 
C     0.0283292    0.5993258   -0.6169733 
O    -0.3361637    4.1566256   -0.0555298 
H     0.3019920    4.9011482    0.2015491 
H    -0.6128505   -0.2361775   -0.8864598 
H     3.1993749    1.3441373    0.1278318 
H     2.2123937    3.5551389    0.3304599 
H    -1.5730292    1.9941462   -0.6756511 
C     1.9743028   -0.9660189   -0.5311290 
C     2.8239630   -1.1022534   -1.8202467 
H     1.1937980   -1.7614293   -0.5194899 
H     2.6101902   -1.1566450    0.3634927 
C     3.6718282   -2.3594119   -1.7721803 
O     3.0865890   -3.6067465   -1.5757512 
O     5.0551755   -2.2649935   -1.8699167 
H     5.4479170   -3.1970246   -1.8354609 
N     1.9751161   -1.0958008   -3.0316316 
H     3.5591288   -0.2637328   -1.8624498 
H     0.9660756   -0.9202313   -2.8196458 
H     2.2845043   -0.3289062   -3.6740057 
