24
Energy =
C     0.7769993    2.4901989   -2.0829851 
C    -0.5411992    2.6280743   -1.8133566 
C    -1.1189939    1.8655447   -0.8577768 
C     1.5208287    1.5798574   -1.4048308 
C     0.9443699    0.7981197   -0.4489572 
C    -0.3814638    0.9534457   -0.1742984 
O    -1.3017621    3.5608220   -2.5132123 
H    -1.6772388    3.1475774   -3.3601006 
H    -0.8644183    0.3427431    0.5851503 
H     2.5780555    1.4842216   -1.6337866 
H     1.2292642    3.1160586   -2.8437881 
H    -2.1760367    1.9901039   -0.6484348 
C     1.7669019   -0.2290094    0.3057478 
C     1.5859272   -1.6803892   -0.2226363 
H     1.4921454   -0.1838928    1.3834737 
H     2.8465627    0.0398193    0.2693894 
C     0.1337513   -2.1586137   -0.1379058 
O    -0.6705154   -2.1962745   -1.2709041 
O    -0.4368659   -2.5003269    1.0905632 
H     0.2225078   -2.4250667    1.8489163 
N     2.1319415   -1.8298100   -1.5890250 
H     2.1481777   -2.3562860    0.4627977 
H     2.5558302   -0.9487374   -1.9580231 
H     2.8787918   -2.5632128   -1.6085949 
