24
Energy =
C     1.0039576    2.6234297   -0.8588321 
C    -0.3509255    2.4937663   -0.8613136 
C    -0.9073416    1.2743554   -0.6544137 
C     1.7780695    1.5328136   -0.6499371 
C     1.2329244    0.3094888   -0.4569284 
C    -0.1225899    0.1841132   -0.4472603 
O    -1.1921325    3.5915470   -1.0726533 
H    -0.6999448    4.4676767   -1.2137586 
H    -0.5880712   -0.7821020   -0.2713646 
H     2.9541872    1.5121288   -0.6431671 
H     1.4698458    3.5889863   -1.0229720 
H    -1.9882564    1.1810035   -0.6518591 
C     2.1492411   -0.8767086   -0.1753741 
C     3.4146683   -0.9402225   -1.0827979 
H     1.5732168   -1.8193791   -0.3137469 
H     2.4616863   -0.8426067    0.8912350 
C     4.4589629    0.1744695   -0.7645728 
O     4.0535518    1.5106194   -0.6377857 
O     5.8328993   -0.0786843   -0.6683549 
H     6.1114202   -1.0325475   -0.8422421 
N     3.9656150   -2.3027647   -1.0030049 
H     3.0793479   -0.7805152   -2.1318851 
H     4.6594417   -2.4466529   -1.7737021 
H     4.4516962   -2.4370538   -0.0849686 
