23
UFF-Energy = 0.0894322
C    -5.6381352    1.9926148    0.7104561 
C    -5.4550923    0.6568996    0.8619023 
C    -4.3533873    0.0525997    0.3574336 
C    -4.7164826    2.7686169    0.0397767 
C    -3.6068438    2.1231502   -0.4633440 
C    -3.4366331    0.7875403   -0.3003873 
H    -2.7996660    2.6535751   -0.9555845 
H    -2.5513040    0.2953489   -0.6900221 
H    -6.2017836    0.0670808    1.3811547 
H    -6.5684008    2.3978445    1.0920837 
O    -4.1387569   -1.3227629    0.5009897 
H    -4.8701265   -1.8077312    1.0077922 
C    -4.8973809    4.1359715   -0.1217215 
C    -4.2899563    4.8281364   -1.1482948 
C    -4.4721550    6.1620929   -1.3013726 
C    -5.2559178    6.8451539   -0.4421500 
C    -5.8638280    6.1997636    0.5742409 
C    -5.6928942    4.8654285    0.7367836 
H    -6.1659496    4.4223966    1.6051236 
H    -6.4845191    6.7562622    1.2716932 
H    -3.6924900    4.3342851   -1.9055740 
H    -3.9937796    6.6838736   -2.1262026 
H    -5.3973774    7.9152127   -0.5686659 
