13
Energy =
C    -5.2724598    2.1586389   -0.0009779 
C    -3.9493288    1.3685976    0.0082644 
H    -6.1339644    1.4702781   -0.1374163 
H    -5.2826533    2.8969679   -0.8342965 
H    -5.3975140    2.7158217    0.9531054 
C    -2.7315062    2.2953057    0.0943107 
N    -3.9901064    0.3306239    1.0670700 
H    -3.8422691    0.8574934   -0.9761881 
H    -3.1955822    0.4389760    1.7450958 
H    -4.8576611    0.3847836    1.6515456 
O    -2.7510495    3.5320662   -0.5364574 
O    -1.5477802    1.8667952    0.6815574 
H    -1.0551750    1.2754807    0.0281062 
