13
Energy =
C    -5.3330875    1.8606747    0.1574132 
C    -3.9163527    1.2594917    0.1356743 
H    -5.6635566    2.1060268   -0.8757271 
H    -5.3482706    2.7961609    0.7604491 
H    -6.0585979    1.1414873    0.5935199 
C    -2.9103990    2.2016736   -0.5088250 
N    -3.5189241    0.8949240    1.5046318 
H    -3.9078079    0.3454399   -0.5048073 
H    -3.4957333    1.7536954    2.1073227 
H    -4.2191666    0.2364066    1.9195760 
O    -2.6054339    3.4254506    0.0795146 
O    -2.3219086    1.8663207   -1.7213843 
H    -1.6869913    2.6083527   -1.9856938 
