13
Energy =
C    -5.1925025    2.1843198    0.5248126 
C    -4.0348140    1.5637214   -0.2725200 
H    -6.1585196    1.7182037    0.2377054 
H    -5.2622029    3.2785644    0.3359125 
H    -5.0311084    2.0238252    1.6137784 
C    -2.6990643    2.2474430    0.0209332 
N    -3.9956535    0.1247579    0.0355736 
H    -4.2129253    1.7195286   -1.3629119 
H    -4.8966849   -0.3196212   -0.2624562 
H    -3.2551284   -0.3300787   -0.5519169 
O    -2.6599676    3.5437456    0.5214834 
O    -1.5037474    1.6221512   -0.3075265 
H    -1.2481613    1.0095022    0.4533847 
