13
Energy =
C    -5.2186018    2.4199589    0.2037248 
C    -4.0586426    1.4807026   -0.1398940 
H    -6.1865523    1.8938518    0.0599799 
H    -5.1990395    3.3205844   -0.4476762 
H    -5.1480684    2.7499578    1.2632972 
C    -2.7094760    2.1706819    0.0217964 
N    -4.1855518    0.2682897    0.6836898 
H    -4.1381953    1.2004574   -1.2179683 
H    -3.4404640   -0.4174300    0.4109153 
H    -4.0390119    0.4997995    1.6952097 
O    -1.8391223    2.2487187   -1.0555497 
O    -2.3380816    2.7357902    1.2353715 
H    -2.0311024    2.0041742    1.8583318 
