13
Energy =
C    -5.1116107    2.3669592   -0.0540311 
C    -3.9689140    1.3558580   -0.1856841 
H    -6.0803243    1.8713508   -0.2807290 
H    -4.9728138    3.2160373   -0.7568961 
H    -5.1577420    2.7646949    0.9843836 
C    -2.6160602    1.9922120    0.1074051 
N    -4.2613884    0.2190564    0.7005314 
H    -3.9265948    0.9950705   -1.2413070 
H    -3.5384883   -0.5254641    0.5510858 
H    -4.1629416    0.5188478    1.7019725 
O    -2.3087901    2.4302343    1.3887845 
O    -1.6960428    2.1821192   -0.9140619 
H    -1.9583688    2.9962107   -1.4499004 
