13
Energy =
C    -5.1351052    2.4901730    0.0377978 
C    -4.0526715    1.3982851   -0.0209329 
H    -6.1465184    2.0380257   -0.0494180 
H    -5.0072179    3.2080543   -0.8025383 
H    -5.0808218    3.0496596    0.9970535 
C    -2.6471484    1.9844767   -0.0533396 
N    -4.2291407    0.4731537    1.1091381 
H    -4.1508466    0.8283407   -0.9769217 
H    -4.0482025    0.9734654    2.0136069 
H    -5.2101478    0.1081362    1.1345906 
O    -1.8968630    1.9158786   -1.2192776 
O    -2.1276251    2.6573489    1.0469049 
H    -2.5312113    3.5802011    1.0895484 
