13
Energy =
C    -5.3415408    2.0383503   -0.1764141 
C    -3.9728867    1.4006603    0.0316179 
H    -6.0801101    1.2456831   -0.4150080 
H    -5.3072968    2.7858958   -0.9951829 
H    -5.6627553    2.5464872    0.7567123 
C    -2.8739607    2.4186908    0.3979304 
N    -4.1438826    0.3208033    1.0369760 
H    -3.6211091    0.9782328   -0.9472414 
H    -3.1764335    0.1190681    1.4374120 
H    -4.6652076    0.6927586    1.8656243 
O    -3.1382887    3.7861921    0.4234347 
O    -1.5844305    1.9618470    0.7047895 
H    -1.4320675    0.9844026    0.4845187 
