13
Energy =
C    -5.3376505    2.1957504    0.3082833 
C    -4.0446024    1.5183681   -0.1847418 
H    -6.2168698    1.5473233    0.1047679 
H    -5.4908970    3.1683522   -0.2098544 
H    -5.2787310    2.3962570    1.4010833 
C    -2.8113132    2.4191189   -0.0287309 
N    -3.8809129    0.1969820    0.4637151 
H    -4.1507469    1.3543306   -1.2819596 
H    -2.9572912    0.1207079    0.9562856 
H    -4.6044638    0.0190503    1.2009353 
O    -2.8604983    3.5438542    0.7868595 
O    -1.6150529    2.1120253   -0.6749934 
H    -1.6852600    1.2521489   -1.2002807 
