13
Energy =
C    -5.1780982    2.1857240    0.5309074 
C    -4.0475272    1.4639575   -0.2060222 
H    -6.1141509    1.5908777    0.4642084 
H    -5.3586085    3.1865844    0.0799836 
H    -4.9185720    2.3227447    1.6032902 
C    -2.7531712    2.2712447   -0.1577326 
N    -3.9193895    0.1131491    0.3639745 
H    -4.3242031    1.3834184   -1.2841838 
H    -3.2238315   -0.4352627   -0.1947130 
H    -3.5458796    0.1757004    1.3433293 
O    -2.5684541    3.3213757   -1.0447144 
O    -1.7861070    2.0255724    0.8095026 
H    -1.2640774    1.2011807    0.5532732 
