13
Energy =
C    -5.3709962    2.1304312    0.5024986 
C    -4.0874408    1.6630694   -0.2062656 
H    -6.2289401    1.4873176    0.2111636 
H    -5.6089667    3.1817757    0.2250067 
H    -5.2403912    2.0854333    1.6066118 
C    -2.9202637    2.5953545    0.1026701 
N    -3.8053162    0.2456961    0.1204085 
H    -4.2482772    1.7417257   -1.3071478 
H    -2.8514283    0.1345734    0.5448988 
H    -4.4662956   -0.1356689    0.8383265 
O    -2.3539543    2.6170376    1.3700594 
O    -2.4300258    3.4495404   -0.8747627 
H    -1.8188239    2.9300730   -1.4880795 
