13
Energy =
C    -5.2384786    2.2331672   -0.0266781 
C    -3.9348222    1.4167248   -0.0960223 
H    -6.1058509    1.6021113   -0.3169504 
H    -5.1914594    3.1057635   -0.7153915 
H    -5.3986997    2.6167562    1.0058259 
C    -2.7195871    2.2855941    0.2065991 
N    -4.0284246    0.2231230    0.7770975 
H    -3.7899747    1.0738360   -1.1484023 
H    -3.2513839    0.2036277    1.4822015 
H    -4.9097220    0.2120810    1.3445327 
O    -2.6260176    2.9732572    1.4090404 
O    -1.6799838    2.3731971   -0.7081037 
H    -1.0998956    1.5510699   -0.6218234 
