24
Energy =
C     2.0717223    2.5047948    0.7857261 
C     0.8036148    2.9184920    1.0039436 
C    -0.2318402    2.2281338    0.4572790 
C     2.3154208    1.4074187    0.0254880 
C     1.2824400    0.7061168   -0.5205286 
C     0.0056032    1.1288520   -0.3031336 
O     0.5938423    4.0568891    1.7878576 
H    -0.3826465    4.2956181    1.9217658 
H    -0.8349339    0.5945070   -0.7377285 
H     3.3429925    1.0922531   -0.1433349 
H     2.8890314    3.0644372    1.2287178 
H    -1.2516493    2.5562161    0.6262982 
C     1.5536985   -0.5226301   -1.3702960 
C     1.8332423   -1.8075644   -0.5430612 
H     2.4302188   -0.3221543   -2.0282563 
H     0.7030057   -0.7137104   -2.0610634 
C     3.0422567   -1.6621155    0.3726198 
O     2.9617555   -1.9281758    1.7357561 
O     4.2612994   -1.2518878   -0.1623486 
H     4.9660334   -1.2786247    0.5648677 
N     0.6311110   -2.2613713    0.1908749 
H     2.1401979   -2.5976917   -1.2663296 
H    -0.1816760   -1.6149109    0.0819735 
H     0.3291306   -3.1985366   -0.1640155 
