24
Energy =
C     1.7034460    2.1516735    1.4091862 
C     0.7395900    2.7937885    0.7108284 
C     0.1278125    2.1623329   -0.3266677 
C     2.0602323    0.8832116    1.0830785 
C     1.4428932    0.2429200    0.0521353 
C     0.4801121    0.8939025   -0.6565962 
O     0.4001572    4.0998786    1.0783210 
H    -0.3251036    4.5139631    0.5028677 
H    -0.0063515    0.4066020   -1.4980123 
H     2.8441214    0.3865500    1.6496561 
H     2.1876989    2.6693119    2.2303379 
H    -0.6406268    2.6715777   -0.8981731 
C     1.8531752   -1.1629599   -0.3273421 
C     3.0146889   -1.1581282   -1.3382406 
H     0.9882676   -1.7171091   -0.7563298 
H     2.1510563   -1.7231671    0.5881029 
C     3.6139772   -2.5484044   -1.4720728 
O     2.9849586   -3.5222151   -2.2386183 
O     4.7636492   -2.8763640   -0.7696740 
H     5.0005840   -3.8394580   -0.9731228 
N     2.5379646   -0.6202672   -2.6269719 
H     3.8348819   -0.5110854   -0.9465919 
H     3.3555754   -0.5209886   -3.2748222 
H     1.8983426   -1.3182982   -3.0800124 
