24
Energy =
C     1.0363744    2.0458158    1.0109961 
C    -0.1189290    2.3019943    0.3415763 
C    -0.4895380    1.5008353   -0.6831813 
C     1.8116167    0.9908507    0.6543298 
C     1.4360532    0.1799035   -0.3735661 
C     0.2828863    0.4453128   -1.0460458 
O    -0.9404847    3.3808548    0.6824955 
H    -0.5936696    3.9349903    1.4583495 
H    -0.0294643   -0.1832004   -1.8761973 
H     2.7394560    0.8051632    1.1931694 
H     1.3455664    2.6856521    1.8306529 
H    -1.4122259    1.7189184   -1.2101360 
C     2.3138470   -0.9786946   -0.7940967 
C     3.2865330   -0.5850045   -1.9206976 
H     1.6783281   -1.8277837   -1.1285393 
H     2.9010720   -1.3638014    0.0726137 
C     4.2520127    0.5003593   -1.4636331 
O     5.0587014    0.3113287   -0.3490209 
O     4.3018716    1.7137994   -2.1362493 
H     3.5151092    2.2803383   -1.8535594 
N     3.9972963   -1.7998366   -2.3568942 
H     2.7168157   -0.1510893   -2.7766280 
H     3.3551927   -2.3908382   -2.9352849 
H     4.7994690   -1.5368849   -2.9808806 
