24
Energy =
C     0.4516065    2.1226233    0.6883808 
C    -0.2425446    2.7384299   -0.2955061 
C    -0.2180491    2.2283350   -1.5555159 
C     1.1709939    1.0022009    0.4254638 
C     1.2017318    0.4895587   -0.8353634 
C     0.4992953    1.1079289   -1.8243550 
O    -0.9722796    3.8903460    0.0154345 
H    -1.4647919    4.2963671   -0.7725621 
H     0.5077723    0.7091787   -2.8359195 
H     1.7167289    0.5188289    1.2315307 
H     0.4221231    2.5380039    1.6900761 
H    -0.7732610    2.7152489   -2.3493812 
C     1.9879088   -0.7684173   -1.1336980 
C     1.0815309   -2.0243662   -1.2144274 
H     2.7847290   -0.9279180   -0.3732058 
H     2.5261245   -0.6245403   -2.0990329 
C     1.8407203   -3.2488079   -1.7389542 
O     2.9779286   -3.0771342   -2.5197243 
O     1.3689117   -4.5434298   -1.5346896 
H     0.5427721   -4.5327643   -0.9543066 
N     0.4587590   -2.2885736    0.0987520 
H     0.2827059   -1.8481817   -1.9719142 
H     1.1855974   -2.2990853    0.8552433 
H    -0.2238037   -1.5272314    0.3304496 
