24
Energy =
C     1.7703532    2.6892756   -0.0041412 
C     0.5319991    2.8608207    0.5133133 
C    -0.3610757    1.8451863    0.4823767 
C     2.1232293    1.4970978   -0.5488570 
C     1.2292549    0.4695689   -0.5827531 
C    -0.0158915    0.6499068   -0.0604955 
O     0.1740706    4.0842576    1.0709956 
H     0.4089598    4.1117551    2.0570723 
H    -0.7434173   -0.1583357   -0.0767014 
H     3.1233699    1.3739974   -0.9564020 
H     2.4725628    3.5155081    0.0189747 
H    -1.3537822    1.9987446    0.8925078 
C     1.6180126   -0.8666597   -1.1744289 
C     1.9743361   -1.9066985   -0.0856110 
H     2.4722756   -0.7567794   -1.8810599 
H     0.7702243   -1.2454854   -1.7908688 
C     2.1331618   -3.2864967   -0.6998318 
O     1.1120668   -4.2192698   -0.5829283 
O     3.2525212   -3.5994007   -1.4592351 
H     3.9861443   -3.8889991   -0.8288016 
N     3.1889046   -1.5038661    0.6480983 
H     1.1268224   -2.0003506    0.6331473 
H     3.9584389   -1.2732122   -0.0250798 
H     2.9924744   -0.6425568    1.2106657 
