24
Energy =
C     2.2550947    2.6388225    0.2267257 
C     1.2028455    3.2604068   -0.3696983 
C     0.2552522    2.5223193   -0.9912226 
C     2.3529367    1.2855111    0.1990915 
C     1.3961199    0.5413059   -0.4210792 
C     0.3476083    1.1687040   -1.0217232 
O     1.0726265    4.6527350   -0.3612881 
H     1.8200631    5.1347487    0.1264237 
H    -0.4191226    0.5931366   -1.5351112 
H     3.2021241    0.8024991    0.6767751 
H     3.0214299    3.2225008    0.7254181 
H    -0.5767572    3.0308430   -1.4662516 
C     1.5162651   -0.9660280   -0.4678759 
C     2.4497696   -1.4422286   -1.5993295 
H     0.5177602   -1.4403022   -0.6067146 
H     1.8935565   -1.3332377    0.5130739 
C     2.7493160   -2.9295446   -1.4700469 
O     3.8760317   -3.4603832   -2.0868242 
O     1.9035663   -3.7755827   -0.7599652 
H     2.2612922   -4.7203926   -0.8218614 
N     1.8332619   -1.1302893   -2.9016693 
H     3.4343381   -0.9263530   -1.5093670 
H     1.9259638   -0.1034551   -3.0830435 
H     2.3848073   -1.5965419   -3.6631684 
