24
Energy =
C     1.4171737    2.6586165   -0.2711756 
C     0.2970969    2.7228040    0.4839344 
C    -0.3991774    1.5858470    0.7513151 
C     1.8474163    1.4692258   -0.7632571 
C     1.1504414    0.3291638   -0.5035881 
C     0.0268639    0.3932127    0.2623901 
O    -0.1132026    3.9666770    0.9738199 
H    -0.9621910    3.9368141    1.5274625 
H    -0.5374506   -0.5086632    0.4879144 
H     2.7564595    1.4335057   -1.3597404 
H     1.9664976    3.5719538   -0.4741495 
H    -1.2965679    1.6296042    1.3583107 
C     1.6368089   -1.0018477   -1.0322134 
C     2.4874452   -1.7619600    0.0061172 
H     2.2405453   -0.8614674   -1.9579349 
H     0.7608787   -1.6197233   -1.3341620 
C     2.7198574   -3.2056220   -0.4184677 
O     2.5985735   -3.5987868   -1.7477779 
O     3.0721595   -4.1495589    0.5365429 
H     3.2038610   -5.0418714    0.0767493 
N     3.7609177   -1.0433579    0.2052707 
H     1.9284025   -1.8306668    0.9693151 
H     3.5866327   -0.2056837    0.8082892 
H     4.4160239   -1.6516666    0.7567294 
