24
Energy =
C     1.4393846    2.0062028    0.4743648 
C     0.7247691    2.8624346   -0.2909764 
C     0.2626718    2.4663646   -1.4988701 
C     1.6883427    0.7458716    0.0368466 
C     1.2220118    0.3365709   -1.1758902 
C     0.5076050    1.2064329   -1.9430061 
O     0.4698530    4.1536485    0.1595834 
H    -0.4088186    4.1864786    0.6652804 
H     0.1273224    0.8959881   -2.9117454 
H     2.2540667    0.0652910    0.6687092 
H     1.8063779    2.3372562    1.4396797 
H    -0.3020752    3.1682697   -2.1034607 
C     1.4821041   -1.0764092   -1.6565345 
C     0.4164192   -2.0945484   -1.1763367 
H     2.4841338   -1.4080841   -1.2987153 
H     1.5446569   -1.1001745   -2.7665265 
C     0.3762126   -2.2258652    0.3398187 
O    -0.4444609   -1.4105924    1.1148809 
O     1.2284549   -3.1225374    0.9723189 
H     1.0678019   -3.0733666    1.9699720 
N    -0.9072176   -1.7922530   -1.7532660 
H     0.7252967   -3.1055970   -1.5278370 
H    -1.2932304   -0.9171645   -1.3231108 
H    -0.8323782   -1.6484752   -2.7865470 
