24
Energy =
C     1.5053835    1.7411458    1.1155805 
C     0.7535362    2.6578350    0.4637246 
C     0.3434089    2.4197581   -0.8030464 
C     1.8438612    0.5770664    0.5044693 
C     1.4325083    0.3288775   -0.7705257 
C     0.6783033    1.2583071   -1.4213754 
O     0.4091112    3.8498960    1.0922574 
H    -0.4637300    3.7502558    1.5989650 
H     0.3434760    1.0802113   -2.4402149 
H     2.4459689   -0.1510197    1.0425418 
H     1.8357814    1.9509646    2.1273589 
H    -0.2501322    3.1689204   -1.3170479 
C     1.7962464   -0.9705979   -1.4545391 
C     0.6170955   -1.9729794   -1.4809282 
H     2.6749773   -1.4471120   -0.9613561 
H     2.1262323   -0.7445558   -2.4937286 
C     0.9294568   -3.1385680   -2.4030176 
O     1.9140096   -4.0571229   -2.0640513 
O     0.3173281   -3.2315522   -3.6462024 
H     0.7150049   -2.5442724   -4.2677323 
N     0.3023181   -2.4418205   -0.1181537 
H    -0.2896624   -1.4954577   -1.9200668 
H     1.1309495   -2.9394963    0.2910568 
H     0.0623717   -1.6376531    0.5063427 
