24
Energy =
C     2.1510603    2.5410470    0.0777799 
C     0.8878834    3.0070447    0.2691490 
C    -0.1667061    2.1928795    0.0377320 
C     2.3515775    1.2672025   -0.3457472 
C     1.2900605    0.4496204   -0.5873737 
C     0.0279147    0.9184585   -0.3868785 
O     0.6461103    4.3145896    0.7027229 
H     1.4870349    4.8575843    0.8646960 
H    -0.8331321    0.2757056   -0.5576335 
H     3.3671332    0.9069564   -0.4889471 
H     3.0032001    3.1853317    0.2650630 
H    -1.1686811    2.5746412    0.2012352 
C     1.5152213   -0.9771395   -1.0392522 
C     1.7853320   -1.9251372    0.1550271 
H     2.3786354   -1.0031310   -1.7400399 
H     0.6334777   -1.3494951   -1.6111432 
C     0.5910861   -2.0167496    1.0948922 
O     0.7865073   -1.9852494    2.4721092 
O    -0.7041444   -2.1373983    0.5966954 
H    -1.3411558   -2.2377832    1.3758297 
N     2.1686043   -3.2707385   -0.3248753 
H     2.6146493   -1.4947320    0.7650220 
H     2.2210825   -3.3348470   -1.3687821 
H     3.1134818   -3.5258516    0.0481421 
