24
Energy =
C     1.6620410    2.6257235   -0.1100995 
C     0.3400726    2.8373174    0.0868221 
C    -0.5368572    1.8165427   -0.0509158 
C     2.1132489    1.3888136   -0.4398853 
C     1.2360532    0.3563443   -0.5825006 
C    -0.0935646    0.5769467   -0.3805402 
O    -0.1185464    4.1064990    0.4250811 
H    -0.1109362    4.2332140    1.4314570 
H    -0.8089240   -0.2378291   -0.4742897 
H     3.1785595    1.2311338   -0.5878100 
H     2.3527913    3.4548817   -0.0019411 
H    -1.5946514    1.9991774    0.1070162 
C     1.7395027   -1.0302255   -0.9220915 
C     2.1952124   -1.8033403    0.3264305 
H     2.5898979   -0.9556184   -1.6352840 
H     0.9533691   -1.6192515   -1.4480588 
C     1.0474866   -2.0087844    1.3087543 
O    -0.1419780   -2.6038468    0.9000902 
O     1.1825782   -1.5983495    2.6285184 
H     0.3327955   -1.8239758    3.1295566 
N     2.7973814   -3.0732508   -0.1314115 
H     2.9548957   -1.1947230    0.8728696 
H     3.8270546   -3.0614352    0.0585150 
H     2.4086185   -3.8941048    0.3945293 
