24
Energy =
C     1.8063314    2.5842029   -0.3376151 
C     0.5101532    2.8386743   -0.6296224 
C    -0.3227784    1.8230365   -0.9533812 
C     2.2740584    1.3100667   -0.3646686 
C     1.4429408    0.2825328   -0.6942223 
C     0.1371377    0.5460234   -0.9811216 
O     0.0343680    4.1457750   -0.6009331 
H    -0.3024137    4.3826618    0.3257402 
H    -0.5469529   -0.2603810   -1.2343616 
H     3.3133118    1.1152937   -0.1113872 
H     2.4625006    3.4088541   -0.0814016 
H    -1.3589223    2.0415195   -1.1894243 
C     1.9550057   -1.1412885   -0.7034744 
C     1.8822402   -1.7749536    0.6984427 
H     3.0047478   -1.1707682   -1.0723001 
H     1.3603365   -1.7470542   -1.4245456 
C     2.0793492   -3.2791064    0.6202505 
O     3.3046615   -3.8117349    0.2343809 
O     1.0184058   -4.1329587    0.8879288 
H     1.3326790   -5.0896320    0.7831311 
N     2.8708210   -1.1245872    1.5798740 
H     0.8568335   -1.6232208    1.1121274 
H     2.7102651   -1.4504946    2.5628623 
H     3.8364960   -1.4447214    1.3215895 
