24
Energy =
C     0.9647479    2.5175091   -0.1461327 
C    -0.3756772    2.3860464   -0.2802724 
C    -0.9107180    1.1806934   -0.5941073 
C     1.7649334    1.4410528   -0.3390416 
C     1.2460366    0.2327774   -0.6708878 
C    -0.1044306    0.1023909   -0.7851409 
O    -1.2057484    3.4853657   -0.0852218 
H    -1.3436867    3.9904453   -0.9536789 
H    -0.5491752   -0.8605585   -1.0229830 
H     2.9429116    1.4459282   -0.2549607 
H     1.3866731    3.4803494    0.1208380 
H    -1.9880620    1.0851817   -0.6810703 
C     2.1737845   -0.9665809   -0.8299189 
C     3.5271093   -0.6332060   -1.5236120 
H     1.6538442   -1.7542439   -1.4185709 
H     2.3759597   -1.4086091    0.1720396 
C     4.4652074    0.2149087   -0.6185056 
O     4.0387007    1.4663089   -0.1724732 
O     5.7439550   -0.1983238   -0.2487787 
H     5.9086279   -1.1822742   -0.4001192 
N     4.1332006   -1.8990199   -1.9838156 
H     3.3210030    0.0152619   -2.4095695 
H     3.5376482   -2.3192578   -2.7359535 
H     5.0589891   -1.7034647   -2.4414816 
