24
Energy =
C     1.2693486    2.5708204    0.2714678 
C     0.0703718    2.7278390   -0.3501255 
C    -0.4674544    1.6936449   -1.0356591 
C     1.9183771    1.3801039    0.2097905 
C     1.3720835    0.3333888   -0.4680181 
C     0.1768958    0.5008317   -1.0996446 
O    -0.6280270    3.9384322   -0.3000191 
H    -0.1439377    4.6739935    0.2028805 
H    -0.2651461   -0.3115861   -1.6709969 
H     2.8873789    1.2707737    0.6898262 
H     1.7147372    3.3987898    0.8123480 
H    -1.4173381    1.8364993   -1.5393210 
C     2.1059368   -0.9916399   -0.5524478 
C     3.2388092   -0.9727168   -1.5980585 
H     1.3928655   -1.8105874   -0.7942865 
H     2.5298998   -1.2432153    0.4443131 
C     2.7157143   -0.5645069   -2.9833433 
O     2.9453315    0.7153647   -3.4754088 
O     1.9655216   -1.4520717   -3.7575108 
H     1.8700548   -2.3534890   -3.3150619 
N     4.3275840   -0.1076731   -1.1048621 
H     3.6300478   -2.0104960   -1.7061248 
H     4.8868810   -0.6323737   -0.3918999 
H     4.9889739    0.1113459   -1.8899856 
