24
Energy =
C     1.7165499    2.7179535    0.2727511 
C     0.6926510    3.1620266   -0.5043953 
C    -0.0037017    2.2816720   -1.2585121 
C     2.0338909    1.3985820    0.2943740 
C     1.3237797    0.5100184   -0.4541764 
C     0.3076160    0.9610547   -1.2378598 
O     0.3374897    4.5151638   -0.5466684 
H     0.9198557    5.1103480    0.0313268 
H    -0.2483201    0.2698270   -1.8654163 
H     2.8614709    1.0593725    0.9116431 
H     2.2861789    3.4164224    0.8751074 
H    -0.8079430    2.6490319   -1.8851241 
C     1.6874583   -0.9580715   -0.4465475 
C     2.6570883   -1.3091281   -1.6025437 
H     0.7701049   -1.5815760   -0.5199894 
H     2.1453978   -1.2204078    0.5345027 
C     3.3405506   -2.6596704   -1.4141601 
O     3.3113247   -3.2991972   -0.1853982 
O     4.0774681   -3.2394132   -2.4327406 
H     3.8986066   -2.6760275   -3.2611305 
N     1.9330772   -1.2324985   -2.8760106 
H     3.4851200   -0.5658423   -1.6324001 
H     2.6310575   -1.2978786   -3.6495489 
H     1.2069982   -1.9940046   -2.9514075 
