24
Energy =
C     0.6585823    2.3063269    0.8024832 
C     0.0519027    2.7786141   -0.3103507 
C    -0.0270382    1.9926765   -1.4175266 
C     1.1866470    1.0564418    0.8204045 
C     1.1054170    0.2643760   -0.2835043 
C     0.4989234    0.7416964   -1.4049626 
O    -0.4784109    4.0728163   -0.2901234 
H    -0.9200636    4.3512899   -1.1596398 
H     0.4355495    0.1267565   -2.2999970 
H     1.6727991    0.6965165    1.7236726 
H     0.7168489    2.9427928    1.6787090 
H    -0.5088223    2.3633338   -2.3159022 
C     1.7087734   -1.1222627   -0.2702099 
C     3.2342942   -1.0985041   -0.5186217 
H     1.2296820   -1.7718344   -1.0376649 
H     1.4862029   -1.6076650    0.7077061 
C     3.8821814   -2.4381301   -0.1816232 
O     5.2670278   -2.5604555   -0.2068188 
O     3.1155204   -3.5349222    0.2012691 
H     3.7316713   -4.3217319    0.3620425 
N     3.4842878   -0.7171933   -1.9208063 
H     3.7140484   -0.3632992    0.1684175 
H     3.2569050    0.2972121   -2.0452977 
H     4.5096934   -0.8001524   -2.1246175 
