24
Energy =
C     1.5960577    2.6558229   -0.0275835 
C     0.2751944    2.8211584    0.2509640 
C    -0.5687357    1.7705811    0.1363164 
C     2.0638366    1.4441932   -0.4210098 
C     1.2133304    0.3881438   -0.5457119 
C    -0.1068964    0.5572235   -0.2579272 
O    -0.2395430    4.0566183    0.6567459 
H     0.4561994    4.7910192    0.7299157 
H    -0.8000570   -0.2781770   -0.3329766 
H     3.1233869    1.3251361   -0.6334744 
H     2.2813946    3.4913421    0.0663764 
H    -1.6185761    1.9129121    0.3688864 
C     1.7389031   -0.9694196   -0.9613454 
C     2.2872900   -1.7700525    0.2315434 
H     2.5456854   -0.8429478   -1.7167358 
H     0.9432590   -1.5651234   -1.4650076 
C     1.2010869   -2.0597770    1.2616241 
O    -0.0010755   -2.6495252    0.8829025 
O     1.4098875   -1.7415798    2.5969953 
H     0.5926146   -2.0106928    3.1295907 
N     2.9140929   -2.9961995   -0.3058207 
H     3.0499460   -1.1519416    0.7631543 
H     3.9501217   -2.9525005   -0.1601016 
H     2.5802827   -3.8521650    0.2015294 
