24
Energy =
C     1.0043863    2.3388795    0.6552835 
C    -0.2377654    2.5341364    0.1362904 
C    -0.7116141    1.6687750   -0.7834747 
C     1.7748805    1.2785959    0.2623362 
C     1.2793299    0.4096035   -0.6710160 
C     0.0351382    0.6135346   -1.1861659 
O    -1.0411327    3.6163777    0.5307646 
H    -0.5938621    4.1814755    1.2413675 
H    -0.3760441   -0.0723933   -1.9177443 
H     4.6522157    1.0705347    1.5706103 
H     1.3988293    3.0234851    1.3958920 
H    -1.7004302    1.8266593   -1.1914529 
C     2.0831690   -0.7950586   -1.0979784 
C     2.4661380   -1.6915766    0.0939956 
H     2.9972514   -0.4328545   -1.6134083 
H     1.5162634   -1.4104207   -1.8268617 
C     3.4267869   -0.9532444    1.0054213 
O     4.7597654   -1.3431198    1.0987940 
O     3.0849035    0.2671965    1.6152729 
H     3.4251441    1.3841537    0.8350625 
N     1.2549303   -2.1702413    0.7894706 
H     3.0197357   -2.5687425   -0.3033010 
H     1.5451354   -2.7404446    1.6154925 
H     0.7780715   -1.3261020    1.1987426 
