13
Energy =
C    -5.1544794    1.9103922    0.9853174 
C    -4.1210417    1.5540645   -0.1062438 
H    -4.8251630    2.7728701    1.6068629 
H    -5.3115119    1.0604005    1.6860706 
H    -6.1351353    2.1628372    0.5291555 
C    -2.9506646    2.5350864   -0.1334523 
N    -3.6719008    0.1689523    0.1066764 
H    -4.6021456    1.6349284   -1.1106739 
H    -4.4589944   -0.4863117   -0.1121667 
H    -2.9009201   -0.0607504   -0.5661872 
O    -2.0368031    2.5850752    0.9111781 
O    -2.8230936    3.4337714   -1.1853500 
H    -3.4659864    4.1987568   -1.0433592 
