13
Energy =
C    -5.2927933    2.1921755    0.0298993 
C    -3.9572277    1.4489680   -0.1118286 
H    -6.1265048    1.5729606   -0.3629745 
H    -5.2730208    3.1513909   -0.5342760 
H    -5.4926541    2.4157798    1.1007215 
C    -2.7742414    2.3199915    0.3125230 
N    -4.0492303    0.2097925    0.6770056 
H    -3.7816805    1.2097454   -1.1875175 
H    -4.7923005   -0.4051029    0.2681011 
H    -3.1533700   -0.3278123    0.5775620 
O    -2.7423647    3.6680741   -0.0208464 
O    -1.6756997    1.7648585    0.9544894 
H    -1.8717923    1.7440914    1.9442175 
