13
Energy =
C    -5.2264203    2.3317060    0.2416612 
C    -4.0255385    1.4171809   -0.0978664 
H    -5.7837279    1.9588835    1.1287101 
H    -5.9317717    2.3821254   -0.6146348 
H    -4.9099190    3.3707745    0.4852957 
C    -2.7022310    2.1778169   -0.1719144 
N    -3.9709826    0.3227669    0.8854318 
H    -4.1732332    0.9940455   -1.1210546 
H    -4.8311759   -0.2685616    0.7917587 
H    -3.1653072   -0.3098659    0.6655476 
O    -2.4132253    3.2087980    0.7141397 
O    -1.7472602    1.8114138   -1.1112785 
H    -1.2702472    0.9843192   -0.7845448 
