13
Energy =
C    -5.1333720    2.2467822   -0.4091976 
C    -3.9708845    1.3402900    0.0170424 
H    -6.0054050    1.6392703   -0.7296387 
H    -4.8274266    2.9088352   -1.2483433 
H    -5.4394702    2.8893572    0.4463907 
C    -2.7057143    2.1288051    0.3460329 
N    -4.4179360    0.5340719    1.1619095 
H    -3.6995732    0.6732608   -0.8345106 
H    -5.1607127   -0.1308428    0.8423630 
H    -3.6195487   -0.0610695    1.4924756 
O    -2.7317231    3.5119903    0.5007677 
O    -1.4969685    1.4595073    0.4860324 
H    -0.7812253    2.1374150    0.7143013 
