24
Energy =
C     0.7602468    2.5546496   -0.1971425 
C    -0.3862036    2.4048712    0.5056030 
C    -0.8505302    1.1658176    0.7866174 
C     1.4545548    1.4639361   -0.6104627 
C     1.0000027    0.2128846   -0.3203977 
C    -0.1628818    0.0700500    0.3746965 
O    -1.0931866    3.5246720    0.9324971 
H    -0.7767386    3.8194688    1.8494066 
H    -0.5509006   -0.9196828    0.6013712 
H     2.3699735    1.6003839   -1.1816663 
H     1.1115337    3.5535995   -0.4313226 
H    -1.7795208    1.0603560    1.3368859 
C     1.7562504   -1.0081151   -0.7976248 
C     1.1945905   -1.5490290   -2.1353772 
H     1.6947465   -1.7993916   -0.0184942 
H     2.8385344   -0.7714160   -0.9234828 
C     1.3690952   -0.5520027   -3.2712550 
O     0.3182885   -0.3071208   -4.1494738 
O     2.5747310    0.1204788   -3.4529091 
H     2.5007609    0.6942210   -4.2823513 
N     1.8278007   -2.8395231   -2.4825945 
H     0.0929994   -1.6896380   -2.0249595 
H     2.5105284   -3.1698141   -1.7607201 
H     1.0945746   -3.5812513   -2.5782004 
