24
Energy =
C     0.2725265    2.4023166   -1.5670688 
C    -0.3732452    2.7067109   -0.4185109 
C    -0.2710669    1.8732670    0.6508808 
C     1.0199947    1.2733830   -1.6573988 
C     1.1287872    0.4374450   -0.5885439 
C     0.4753050    0.7425917    0.5664881 
O    -1.1346659    3.8786524   -0.3649353 
H    -1.5866112    4.0413453    0.5281023 
H     0.5427462    0.0830283    1.4279429 
H     1.5294286    1.0443953   -2.5901351 
H     0.1824078    3.0740065   -2.4140944 
H    -0.7878147    2.1096953    1.5742830 
C     1.9494320   -0.8293547   -0.6953435 
C     1.2011847   -1.9546674   -1.4560690 
H     2.2512246   -1.1934016    0.3121231 
H     2.9028852   -0.5861350   -1.2191682 
C     2.1110036   -3.1537094   -1.7491137 
O     3.4910030   -2.9878353   -1.7754937 
O     1.5887011   -4.4013575   -2.0822897 
H     0.5809054   -4.3914815   -2.0217597 
N    -0.0084928   -2.3575199   -0.7104610 
H     0.9039636   -1.5767678   -2.4619146 
H     0.2299269   -2.5660491    0.2895245 
H    -0.7055178   -1.5742803   -0.7105457 
