24
Energy =
C    -0.6242087    2.3234294   -0.6334690 
C    -0.7110001    2.0729931    0.6999354 
C     0.1118571    1.1592803    1.2632687 
C     0.2810709    1.6595167   -1.3943145 
C     1.1090717    0.7368546   -0.8293023 
C     1.0213686    0.4942158    0.5072575 
O    -1.6349864    2.7391840    1.5123599 
H    -2.2146958    3.4095177    1.0191409 
H     1.6732184   -0.2375327    0.9802076 
H     0.3370407    1.8717546   -2.4587249 
H    -1.2779401    3.0551513   -1.0946219 
H     0.0319595    0.9664968    2.3277030 
C     2.1192037   -0.0119908   -1.6753147 
C     1.6406102   -1.4158834   -2.1290657 
H     3.0663350   -0.1205408   -1.0975434 
H     2.3918793    0.5913224   -2.5703932 
C     1.3330329   -2.3612587   -0.9629876 
O     2.3635955   -3.1350093   -0.4426420 
O     0.0818002   -2.4270600   -0.3489180 
H    -0.5746645   -1.8048207   -0.7902062 
N     0.5369192   -1.3126623   -3.1026220 
H     2.5012644   -1.9052293   -2.6434772 
H    -0.2152096   -0.6751981   -2.7546717 
H     0.8989073   -0.8851603   -3.9878549 
