24
Energy =
C     1.2317723    2.4722739   -1.6154195 
C    -0.0327904    2.8721544   -1.3481112 
C    -0.8382275    2.1029395   -0.5803871 
C     1.6943584    1.2970558   -1.1190360 
C     0.8901800    0.5181198   -0.3433584 
C    -0.3833362    0.9258382   -0.0810940 
O    -0.5051380    4.0767386   -1.8598558 
H    -0.9415608    3.9304144   -2.7642332 
H    -1.0476893    0.3098558    0.5182932 
H     2.7038234    0.9734627   -1.3640525 
H     1.8650617    3.0960690   -2.2367044 
H    -1.8500014    2.4353757   -0.3756240 
C     1.3954216   -0.8157889    0.1699423 
C     1.2819858   -1.9894846   -0.8484267 
H     0.8605292   -1.0877345    1.1060538 
H     2.4575628   -0.6854104    0.4804146 
C     0.6088084   -1.6086886   -2.1786276 
O     1.3808507   -1.2334343   -3.2726750 
O    -0.7823018   -1.5941778   -2.3050707 
H    -1.2461521   -1.8561249   -1.4484316 
N     2.6259181   -2.5642758   -1.0468898 
H     0.6301378   -2.7753870   -0.4016249 
H     2.8865360   -3.1357637   -0.2089320 
H     2.6174065   -3.2250425   -1.8622738 
