24
Energy =
C    -0.6273559    0.9487155    1.0818420 
C    -0.6922535    2.1816661    0.5281966 
C     0.1120804    2.4993874   -0.5119281 
C     0.2529223    0.0316797    0.6049521 
C     1.0777046    0.3500177   -0.4312673 
C     0.9955927    1.5881640   -0.9939575 
O    -1.5923660    3.1204426    1.0227526 
H    -1.1737531    3.6556867    1.7749786 
H     1.6271667    1.8522748   -1.8399127 
H     0.2886645   -0.9573452    1.0546085 
H    -1.2913888    0.7026545    1.9031547 
H     0.0363382    3.4846975   -0.9598696 
C     2.0455741   -0.6769490   -0.9780031 
C     1.3839724   -1.5891773   -2.0385241 
H     2.4285141   -1.2993308   -0.1391786 
H     2.9316527   -0.1732425   -1.4282782 
C     0.9174817   -0.7889808   -3.2492162 
O    -0.4085497   -0.8466225   -3.6599658 
O     1.8154312    0.0006789   -3.9592852 
H     1.3248255    0.4288252   -4.7344437 
N     2.2920922   -2.7045280   -2.4064578 
H     0.4578470   -2.0301729   -1.6020542 
H     2.5379148   -2.6707973   -3.4265029 
H     3.2068868   -2.6642432   -1.8989921 
