24
Energy =
C    -0.2897627    2.1914289   -1.4425812 
C    -0.1088427    2.9044820   -0.2987094 
C     0.6792156    2.4051016    0.6840077 
C     0.3194813    0.9894578   -1.5853036 
C     1.0976605    0.4757179   -0.6016720 
C     1.2872839    1.1979686    0.5356488 
O    -0.7169357    4.1489290   -0.1066312 
H    -1.2845107    4.4562855   -0.8893236 
H     1.9252665    0.8207405    1.3303927 
H     0.2222336    0.2823879   -2.5270931 
H    -0.9154541    2.5751074   -2.2407647 
H     0.8199427    2.9875011    1.5881517 
C     1.8058187   -0.8560821   -0.8211916 
C     0.9342029   -1.9236426   -1.5565981 
H     2.1193471   -1.2663496    0.1639797 
H     2.7354795   -0.6716817   -1.4050134 
C     0.6756340   -1.5873991   -3.0400223 
O     0.1227355   -0.3647699   -3.4127171 
O     0.9260748   -2.5142614   -4.0363759 
H     0.1287444   -3.1271188   -4.1060805 
N     1.5488923   -3.2533270   -1.4076246 
H    -0.0729357   -1.9515292   -1.0810321 
H     2.5055303   -3.2490979   -1.8372708 
H     1.6520163   -3.4937484   -0.3939045 
