24
Energy =
C     0.3009988    2.5199933   -1.5180097 
C    -0.1788222    2.7496241   -0.2750806 
C     0.0051941    1.8191322    0.6987031 
C     0.9619203    1.3692841   -1.7982921 
C     1.1526819    0.4337031   -0.8263460 
C     0.6697416    0.6677761    0.4257019 
O    -0.8551235    3.9481625   -0.0267050 
H    -1.2079737    4.0374506    0.9201376 
H     0.7998646   -0.0706457    1.2140163 
H     1.3327721    1.2032465   -2.8059736 
H     0.1457050    3.2679726   -2.2876852 
H    -0.3831879    1.9914699    1.6964398 
C     1.8775987   -0.8611528   -1.1390858 
C     0.9221706   -2.0352502   -1.4703952 
H     2.5213559   -1.1393155   -0.2743360 
H     2.5764604   -0.7080087   -1.9912397 
C     0.0732490   -2.4428603   -0.2632921 
O    -1.1832729   -1.8797994   -0.0692160 
O     0.5781943   -3.2955259    0.7200132 
H     1.4978224   -3.6425094    0.4934479 
N     0.1029167   -1.7331466   -2.6586947 
H     1.5456138   -2.9240543   -1.7150429 
H    -0.6069701   -0.9940393   -2.4317462 
H     0.7021049   -1.3733219   -3.4375116 
