24
Energy =
C     1.8942471    1.7607371    0.6265819 
C     1.0326244    2.6948326    0.1625759 
C     0.2889858    2.4425479   -0.9382047 
C     2.0116075    0.5660033   -0.0071744 
C     1.2679172    0.3043756   -1.1189393 
C     0.4016424    1.2501505   -1.5776414 
O     0.9127329    3.9174451    0.8149043 
H     0.1949741    3.8677200    1.5300786 
H    -0.2165029    1.0451510   -2.4470972 
H     2.6950681   -0.1810801    0.3889036 
H     2.4836787    1.9767100    1.5109640 
H    -0.3998846    3.2000559   -1.2964956 
C     1.3767887   -1.0390239   -1.8151916 
C     0.1679436   -1.9538856   -1.5312491 
H     2.3054541   -1.5635700   -1.4950254 
H     1.4753924   -0.8802605   -2.9108791 
C    -0.0729533   -2.1121552   -0.0348249 
O    -1.0989265   -1.4301524    0.6112886 
O     0.7618150   -2.9361913    0.7076309 
H     0.4612148   -2.9115935    1.6736685 
N    -1.0072041   -1.4434695   -2.2667916 
H     0.4147112   -2.9822714   -1.8854037 
H    -0.9624277   -1.7766617   -3.2582309 
H    -1.8848340   -1.8502321   -1.8585571 
