24
Energy =
C     0.0174081    1.8097958    0.8357145 
C     0.0285732    2.7970622   -0.0896425 
C     0.6472133    2.6050621   -1.2771847 
C     0.6209715    0.6225324    0.5739254 
C     1.2485718    0.4226279   -0.6185459 
C     1.2529098    1.4208526   -1.5464049 
O    -0.5912971    4.0124435    0.1823146 
H    -1.5677501    3.9846936   -0.0912015 
H     1.7324646    1.2738856   -2.5120615 
H     0.5964865   -0.1652121    1.3225049 
H    -0.4785677    1.9798826    1.7851605 
H     0.6504125    3.4046292   -2.0105695 
C     1.8951033   -0.9113565   -0.9263435 
C     0.8747772   -1.9329185   -1.4829710 
H     2.3573493   -1.3173492    0.0007855 
H     2.7232997   -0.7804136   -1.6600804 
C     0.2331526   -1.4317817   -2.7702033 
O     0.9994555   -1.2457738   -3.9161021 
O    -1.1180043   -1.1139969   -2.7973148 
H    -1.3606853   -0.8065553   -3.7302349 
N     1.5040233   -3.2693871   -1.6337401 
H     0.0308062   -2.0289020   -0.7610542 
H     1.4966795   -3.5803686   -2.6366048 
H     2.5118588   -3.2744070   -1.3494973 
