24
Energy =
C     0.7149417    2.5361653   -0.4147497 
C    -0.3845102    2.4582173    0.3698830 
C    -0.8218737    1.2541282    0.8045679 
C     1.3915559    1.4096491   -0.7547170 
C     0.9661102    0.1947338   -0.3088794 
C    -0.1524618    0.1221137    0.4651042 
O    -1.0728802    3.6145503    0.7226521 
H    -0.7175032    3.9931018    1.5935131 
H    -0.5188993   -0.8418704    0.8085453 
H     2.2668902    1.4875660   -1.3966368 
H     1.0425089    3.5057936   -0.7742394 
H    -1.7166637    1.2073238    1.4167600 
C     1.7038931   -1.0663400   -0.7048793 
C     1.0801089   -1.7430582   -1.9365067 
H     1.7083832   -1.7840740    0.1444028 
H     2.7752660   -0.8460175   -0.9196311 
C     1.1524505   -0.8444055   -3.1652142 
O     2.3679414   -0.3212042   -3.5946986 
O    -0.0051824   -0.5455555   -3.8708608 
H     0.2314250    0.0566261   -4.6491361 
N     1.7661898   -3.0381826   -2.1277001 
H    -0.0079317   -1.9102692   -1.7533036 
H     1.1017934   -3.8191129   -1.9159395 
H     2.0590960   -3.1685809   -3.1272847 
