24
Energy =
C     0.8652191    2.5529958   -0.6969468 
C    -0.3997334    2.5882538   -0.1988349 
C    -0.9504945    1.4616521    0.3070674 
C     1.5712222    1.3938143   -0.6852726 
C     1.0195326    0.2604766   -0.1704187 
C    -0.2494733    0.2999044    0.3218468 
O    -1.1550275    3.7650423   -0.1968240 
H    -0.6734325    4.5663178   -0.5904676 
H    -0.7135765   -0.5976704    0.7237475 
H     2.5802813    1.3803538   -1.0913872 
H     1.3139319    3.4513727   -1.1073564 
H    -1.9616436    1.5025329    0.6974818 
C     1.8011816   -1.0347958   -0.1748083 
C     1.7272795   -1.7533590   -1.5374094 
H     1.4292923   -1.7250277    0.6162032 
H     2.8628458   -0.8210803    0.0859346 
C     2.7621015   -2.8644852   -1.6037719 
O     3.4890343   -3.0651871   -2.7677731 
O     2.9593624   -3.7168682   -0.5260574 
H     2.2456907   -4.4307454   -0.5554775 
N     0.3640293   -2.2773547   -1.7399966 
H     1.9921608   -1.0395657   -2.3537667 
H    -0.2825370   -1.4755597   -1.9294448 
H     0.3465744   -2.8522128   -2.6179550 
