24
Energy =
C     0.0737262    2.4197388   -1.6514914 
C    -0.3635583    2.6933671   -0.3938719 
C    -0.0416952    1.8604404    0.6216736 
C     0.8300054    1.3185591   -1.8857161 
C     1.1588748    0.4792397   -0.8634630 
C     0.7172339    0.7586777    0.3939564 
O    -1.1415601    3.8223009   -0.1176796 
H    -1.3560053    4.3879156   -0.9317352 
H     0.9575847    0.0998579    1.2239779 
H     1.1677205    1.1134948   -2.8979576 
H    -0.1808415    3.0798819   -2.4731388 
H    -0.4038251    2.0854466    1.6191727 
C     1.9953524   -0.7581808   -1.1251934 
C     1.1496870   -2.0344281   -1.3740252 
H     2.6844765   -0.9283685   -0.2679190 
H     2.6575985   -0.5854067   -2.0028529 
C     0.3662548   -2.4723957   -0.1425598 
O    -0.8916387   -1.9488482    0.1314555 
O     0.9531597   -3.3274862    0.7827288 
H     1.5961113   -2.8046997    1.3575231 
N     0.2891887   -1.8797907   -2.5616466 
H     1.8505920   -2.8782411   -1.5680647 
H    -0.4749754   -1.1884468   -2.3663338 
H     0.8466575   -1.5201285   -3.3711338 
