24
Energy =
C    -0.9659700    1.4130639    0.5699887 
C    -0.6075467    2.5878430    0.0047433 
C     0.5535478    2.6817496   -0.6822932 
C    -0.1672260    0.3235168    0.4432372 
C     0.9981882    0.4034071   -0.2604836 
C     1.3567539    1.5956004   -0.8167305 
O    -1.4280446    3.7034110    0.1383013 
H    -2.0930971    3.7495845   -0.6262212 
H     2.2871996    1.6914157   -1.3698119 
H    -0.4747188   -0.6138818    0.9012056 
H    -1.8970822    1.3534892    1.1228805 
H     0.8346295    3.6340090   -1.1197160 
C     1.8900857   -0.8162801   -0.4127990 
C     1.3877415   -1.8273307   -1.4796441 
H     1.9695122   -1.3259434    0.5737172 
H     2.9273500   -0.5063889   -0.6715529 
C     0.0334787   -2.4352510   -1.0990984 
O    -1.1444681   -1.8936323   -1.5978842 
O    -0.0590542   -3.4716899   -0.1702695 
H     0.8405002   -3.7833863    0.1611930 
N     1.4288627   -1.2503538   -2.8464071 
H     2.0897076   -2.6908713   -1.4778955 
H     0.4787783   -1.2603306   -3.2930222 
H     1.7213656   -0.2473658   -2.8486298 
