24
Energy =
C     1.3985072    1.6918922    0.9996972 
C     0.5287049    2.5988716    0.4805734 
C     0.0288955    2.4104636   -0.7609173 
C     1.7685516    0.6072665    0.2723099 
C     1.2756829    0.4222178   -0.9843776 
C     0.3957975    1.3279720   -1.4928292 
O     0.1325512    3.7313875    1.1985435 
H     0.5186729    3.7799387    2.1352847 
H    -0.0320001    1.1765589   -2.4797502 
H     2.4510825   -0.1167243    0.7106028 
H     1.7952451    1.8280634    2.0000674 
H    -0.6763817    3.1342461   -1.1544211 
C     1.6736956   -0.7985864   -1.7934633 
C     0.5611750   -1.8656778   -1.8438002 
H     2.5980227   -1.2533742   -1.3732846 
H     1.9329333   -0.4853714   -2.8283327 
C     0.0813023   -2.2428394   -0.4351083 
O    -1.1184363   -1.7427372    0.0567406 
O     0.8534029   -3.0585656    0.3930587 
H     1.6972265   -3.3703884   -0.0620938 
N    -0.5231055   -1.3834089   -2.7208601 
H     0.9889909   -2.7951952   -2.2851854 
H    -0.2629476   -1.5630400   -3.7190732 
H    -1.3950334   -1.9407996   -2.5434637 
