24
Energy =
C     0.8602160    2.6593026   -1.2831213 
C     0.5661526    2.8831705    0.0180898 
C     0.6843154    1.8825978    0.9208200 
C     1.2698909    1.4299189   -1.6881683 
C     1.3915158    0.4171119   -0.7845451 
C     1.0904241    0.6498878    0.5233110 
O     0.1475938    4.1446779    0.4292080 
H    -0.8608675    4.2282647    0.3577528 
H     1.1722115   -0.1469631    1.2584732 
H     1.4891406    1.2587590   -2.7411805 
H     0.7616979    3.4731837   -1.9934477 
H     0.4506447    2.0769875    1.9623640 
C     1.8170624   -0.9650354   -1.2328408 
C     0.6076049   -1.8584861   -1.5687310 
H     2.4224298   -1.4446852   -0.4326746 
H     2.4883142   -0.9083719   -2.1208976 
C    -0.1732339   -1.3249742   -2.7743607 
O     0.5060438   -0.7912459   -3.8646965 
O    -1.5661042   -1.3842664   -2.8235376 
H    -1.9615142   -1.8313098   -2.0105019 
N     1.1002940   -3.2237347   -1.8109716 
H    -0.0821064   -1.8631180   -0.6931288 
H     1.3780478   -3.6583809   -0.8998265 
H     0.3241697   -3.8166138   -2.1937988 
