24
Energy =
C     0.2511650    2.2241801    0.4871207 
C     0.4475988    2.9416015   -0.6430966 
C     1.0341008    2.3651324   -1.7172651 
C     0.6495014    0.9281642    0.5505871 
C     1.2490774    0.3436713   -0.5241577 
C     1.4352344    1.0695326   -1.6617503 
O     0.0371979    4.2696733   -0.7046473 
H     0.7743318    4.8876902   -0.3838356 
H     1.9019031    0.6182308   -2.5340710 
H     0.4785271    0.3633350    1.4635321 
H    -0.2329514    2.6953139    1.3355664 
H     1.1742151    2.9475938   -2.6218846 
C     1.6803717   -1.1047565   -0.4682286 
C     0.6864616   -2.0432374   -1.1954508 
H     1.8041908   -1.4439305    0.5858626 
H     2.6896980   -1.1956348   -0.9298084 
C     1.2680673   -3.4396460   -1.3362770 
O     1.3385478   -4.0466401   -2.5854493 
O     1.7762254   -4.1058543   -0.2256387 
H     2.0895577   -5.0238924   -0.5131700 
N    -0.6078768   -2.0788426   -0.4911967 
H     0.5237436   -1.6824534   -2.2375579 
H    -0.4656927   -2.3607452    0.5084188 
H    -1.0517416   -1.1307039   -0.5023566 
