24
Energy =
C     0.4528634    2.5496966   -1.4578268 
C    -0.0055395    2.8099809   -0.2046983 
C     0.1093569    1.8672958    0.7580825 
C     1.0240727    1.3521197   -1.7401243 
C     1.1458450    0.4025195   -0.7702399 
C     0.6833211    0.6690297    0.4826479 
O    -0.5956712    4.0359221    0.1195685 
H    -0.6629663    4.6829670   -0.6583038 
H     0.7565814   -0.0776853    1.2701354 
H     1.3807063    1.1600890   -2.7483338 
H     0.3625819    3.2980461   -2.2373400 
H    -0.2692504    2.0821468    1.7516721 
C     1.7722724   -0.9422353   -1.0855039 
C     0.7291821   -2.0390752   -1.4206484 
H     2.3907475   -1.2685379   -0.2190655 
H     2.4824674   -0.8387533   -1.9357520 
C    -0.1444876   -2.3856173   -0.2142210 
O    -1.3745193   -1.7642472   -0.0389477 
O     0.3078688   -3.2525797    0.7816703 
H     1.2218316   -3.6297556    0.5871699 
N    -0.0661543   -1.6677780   -2.6070335 
H     1.2726596   -2.9800217   -1.6614594 
H    -0.7399214   -0.9001375   -2.3621305 
H     0.5523595   -1.3152757   -3.3738951 
