24
Energy =
C    -0.4784183    2.0658526   -1.6703229 
C    -0.7415863    2.4921333   -0.4060350 
C    -0.1007965    1.9208823    0.6389878 
C     0.4227700    1.0733570   -1.8819091 
C     1.0727010    0.5017802   -0.8307194 
C     0.8014892    0.9283313    0.4333881 
O    -1.6656354    3.5107832   -0.1529917 
H    -2.1003584    3.8911949   -0.9867293 
H     1.3001311    0.4746245    1.2867892 
H     0.6199608    0.7400687   -2.8980375 
H    -0.9892790    2.5163963   -2.5145272 
H    -0.3221584    2.2677576    1.6425586 
C     2.0626237   -0.6177918   -1.0654072 
C     1.3654706   -1.9850610   -1.2260206 
H     2.7920057   -0.6817441   -0.2258280 
H     2.6653794   -0.3880632   -1.9731905 
C     2.3297353   -3.0439354   -1.7440056 
O     3.7079238   -2.8587883   -1.6898686 
O     1.8267179   -4.2239317   -2.2752039 
H     2.6031988   -4.8115095   -2.5523948 
N     0.7741747   -2.3813732    0.0657201 
H     0.5698795   -1.9087547   -2.0040592 
H    -0.0932500   -1.8187602    0.2284788 
H     0.4516566   -3.3788512    0.0019661 
