24
Energy =
C     0.3480482    2.3921730   -1.3967364 
C    -0.2093519    2.6716015   -0.1970045 
C    -0.0764770    1.7881180    0.8276549 
C     1.0368895    1.2380320   -1.5830248 
C     1.1719967    0.3480495   -0.5611096 
C     0.6115132    0.6318240    0.6475556 
O    -0.9104664    3.8718783   -0.0445152 
H    -1.3039154    4.0101936    0.8798943 
H     0.7091356   -0.0625259    1.4782540 
H     1.4787259    1.0334278   -2.5546726 
H     0.2353529    3.1052831   -2.2064664 
H    -0.5202396    2.0060258    1.7927916 
C     1.9375219   -0.9415019   -0.7725237 
C     1.1504847   -1.9577590   -1.6387125 
H     2.2031680   -1.4173229    0.1995119 
H     2.9070883   -0.6946704   -1.2611618 
C     2.0659092   -3.0878674   -2.0885982 
O     2.4750349   -4.0607654   -1.1870486 
O     2.5691304   -3.1101790   -3.3819837 
H     3.3040307   -2.4243861   -3.4671917 
N    -0.0620716   -2.4475008   -0.9357207 
H     0.8255797   -1.4668579   -2.5848286 
H    -0.0106141   -3.4816610   -0.7597529 
H    -0.1839297   -2.0105583    0.0061566 
