24
Energy =
C    -1.2646912    0.7522600    0.4497758 
C    -1.1651410    2.0399277    0.0240352 
C    -0.0468933    2.4462271   -0.6189688 
C    -0.2466181   -0.1194415    0.2345252 
C     0.8835140    0.2913214   -0.4039690 
C     0.9739776    1.5796353   -0.8363840 
O    -2.1946684    2.9634004    0.2335340 
H    -3.0068700    2.5868162    0.7089568 
H     1.8605164    1.9236068   -1.3648817 
H    -0.3424278   -1.1470310    0.5756230 
H    -2.1604548    0.4194232    0.9612801 
H     0.0219584    3.4729907   -0.9633961 
C     2.0095713   -0.6869456   -0.6628798 
C     1.7740909   -1.5018698   -1.9572723 
H     2.1010765   -1.3764938    0.2049731 
H     2.9821201   -0.1470668   -0.7312563 
C     1.7727251   -0.6265196   -3.2029689 
O     2.7384144    0.3575091   -3.3803227 
O     0.8465421   -0.8488546   -4.2116333 
H     1.1700765   -1.6268068   -4.7675992 
N     2.7828334   -2.5686040   -2.0675480 
H     0.7637697   -1.9698286   -1.9139010 
H     3.7423866   -2.1440474   -2.0776256 
H     2.7281773   -3.1980645   -1.2324557 
