24
Energy =
C     0.0005422    2.2531459   -1.6477518 
C    -0.1177155    2.7798505   -0.4073055 
C     0.4361080    2.1470220    0.6522121 
C     0.6799573    1.0930291   -1.8343260 
C     1.2428055    0.4507635   -0.7726814 
C     1.1170133    0.9862843    0.4740916 
O    -0.8163976    3.9682965   -0.2194583 
H    -0.1978355    4.7663284   -0.3139131 
H     1.5565423    0.4919242    1.3366942 
H     0.7674973    0.6826193   -2.8374134 
H    -0.4570295    2.7664421   -2.4865139 
H     0.3262333    2.5757946    1.6427952 
C     1.9912872   -0.8480100   -0.9817078 
C     1.0379516   -2.0340073   -1.2742843 
H     2.6280939   -1.0971647   -0.1019247 
H     2.6988742   -0.7150567   -1.8321204 
C     1.8248016   -3.2390715   -1.7571658 
O     1.5353172   -3.8147816   -2.9868302 
O     2.8522239   -3.7666031   -0.9868813 
H     2.4425959   -4.4120234   -0.3270813 
N     0.2309695   -2.3878250   -0.0855316 
H     0.3693935   -1.7596291   -2.1250063 
H     0.3941219   -1.7412855    0.7205563 
H    -0.7873407   -2.3108240   -0.3201665 
