24
Energy =
C     0.5551629    1.5737204    1.4268408 
C     1.0094493    2.6385986    0.7135189 
C     1.6162729    2.4350773   -0.4779009 
C     0.7111300    0.3143713    0.9462131 
C     1.3261010    0.1084613   -0.2509847 
C     1.7744231    1.1777170   -0.9638607 
O     0.8640675    3.9495398    1.1790217 
H     0.4028343    4.0185554    2.0797569 
H     2.2622748    1.0346555   -1.9247512 
H     0.3353029   -0.5270738    1.5237844 
H     0.0641249    1.7264226    2.3817698 
H     1.9723849    3.2933933   -1.0370781 
C     1.4867174   -1.2918209   -0.7995905 
C     0.3837395   -1.6493040   -1.8204404 
H     1.4700124   -2.0441665    0.0222516 
H     2.4917435   -1.3862892   -1.2699214 
C     0.7363938   -2.9063776   -2.6075200 
O     0.0746048   -3.1792642   -3.7995960 
O     1.7183411   -3.7858828   -2.1612875 
H     1.7746291   -4.5656413   -2.8035556 
N    -0.8980022   -1.8026206   -1.1074755 
H     0.3033511   -0.8399182   -2.5834766 
H    -1.2307101   -0.8605349   -0.7940143 
H    -1.6283649   -2.1487073   -1.7763480 
