24
Energy =
C    -0.5990273    2.3717059   -0.5404095 
C    -0.5855760    2.1555392    0.8018749 
C     0.2696617    1.2469315    1.3240284 
C     0.2397440    1.6795105   -1.3508394 
C     1.1013346    0.7642245   -0.8267071 
C     1.1128505    0.5536332    0.5180455 
O    -1.4393901    2.8508728    1.6650448 
H    -2.0469379    3.5168919    1.2002256 
H     1.7889389   -0.1778315    0.9562416 
H     0.2162488    1.8626087   -2.4222464 
H    -1.2801140    3.0981854   -0.9692673 
H     0.2684276    1.0804980    2.3958161 
C     2.0360341   -0.0155910   -1.7277999 
C     1.4705909   -1.3771594   -2.1940681 
H     3.0038184   -0.1809419   -1.2009212 
H     2.2870102    0.5927429   -2.6268601 
C     1.1316732   -2.3315669   -1.0445298 
O     2.0614881   -3.2982648   -0.6859481 
O    -0.0620631   -2.2613671   -0.3267530 
H    -0.6169351   -1.4673001   -0.6001359 
N     0.3678592   -1.1676607   -3.1520181 
H     2.2969292   -1.8933194   -2.7394468 
H     0.0006785   -2.0953390   -3.4761885 
H    -0.4307321   -0.6640188   -2.7036758 
