24
Energy =
C     0.2470388    1.5704884    1.1650776 
C    -0.0509657    2.6131665    0.3574917 
C     0.2806791    2.5711324   -0.9526731 
C     0.8715967    0.4747673    0.6622608 
C     1.2019621    0.4185774   -0.6600902 
C     0.9044011    1.4791243   -1.4639738 
O    -0.6840868    3.7361098    0.8776454 
H    -1.6933713    3.6390977    0.8339170 
H     1.1680585    1.4677126   -2.5178697 
H     1.1074001   -0.3523096    1.3292982 
H    -0.0142081    1.6269535    2.2172312 
H     0.0477133    3.4223074   -1.5851443 
C     1.8883140   -0.8085129   -1.2330596 
C     0.8937472   -1.8199036   -1.8739015 
H     2.4776423   -1.3247613   -0.4390995 
H     2.6393070   -0.4946965   -1.9920289 
C    -0.0678887   -2.4449110   -0.8577990 
O     0.3410124   -2.5597922    0.4621652 
O    -1.2962547   -3.0200825   -1.1773754 
H    -1.4661554   -2.9215416   -2.1718097 
N     0.1598309   -1.1833653   -2.9649435 
H     1.4877747   -2.6611511   -2.2939155 
H     0.8347532   -0.9244076   -3.7330630 
H    -0.4922638   -1.9142640   -3.3350457 
