24
Energy =
C    -0.3158978    2.1122202   -1.8449677 
C    -0.7414477    2.5245508   -0.6209548 
C    -0.2474026    1.9357531    0.4918054 
C     0.6000694    1.1162320   -1.9488909 
C     1.1026055    0.5271208   -0.8289101 
C     0.6690262    0.9395913    0.3940597 
O    -1.6852546    3.5465739   -0.4784663 
H    -2.0048424    3.9394138   -1.3573303 
H     1.0470008    0.4716772    1.3001021 
H     0.9279969    0.7941831   -2.9344615 
H    -0.7083528    2.5766600   -2.7432543 
H    -0.5981310    2.2715168    1.4617234 
C     2.1092033   -0.5960932   -0.9465183 
C     1.4359704   -1.9573600   -1.2150236 
H     2.7226543   -0.6787716   -0.0201996 
H     2.8255324   -0.3606495   -1.7655990 
C     2.4697006   -3.0158868   -1.5748483 
O     2.0753166   -4.1555826   -2.2656787 
O     3.8039071   -2.8739995   -1.2073571 
H     4.3141281   -3.6937203   -1.5109968 
N     0.6519019   -2.3536847   -0.0311150 
H     0.7684232   -1.8717669   -2.1042090 
H    -0.2243799   -1.7819080    0.0017536 
H     0.3305003   -3.3458530   -0.1484936 
