24
Energy =
C     0.1106787    1.8251165    0.9048928 
C     0.0983172    2.7891117   -0.0438710 
C     0.6370024    2.5479722   -1.2607249 
C     0.6581636    0.6116777    0.6376543 
C     1.2018359    0.3593090   -0.5865275 
C     1.1851626    1.3371342   -1.5355947 
O    -0.4638678    4.0308842    0.2338814 
H    -1.4527073    4.0312812    0.0087339 
H     1.6026808    1.1521869   -2.5215870 
H     0.6515267   -0.1573888    1.4069545 
H    -0.3222333    2.0347066    1.8771633 
H     0.6234399    3.3300283   -2.0122389 
C     1.7999372   -0.9997053   -0.8981252 
C     0.7925281   -1.9522615   -1.5793167 
H     2.1837357   -1.4711226    0.0346703 
H     2.6843454   -0.8720978   -1.5594432 
C    -0.3910184   -2.2869539   -0.6726674 
O    -0.2006718   -2.4534433    0.6958909 
O    -1.6436267   -2.5616264   -1.2086983 
H    -2.2758263   -2.7949148   -0.4538620 
N     0.3863100   -1.3724412   -2.8749820 
H     1.2987647   -2.9294299   -1.7521545 
H     1.1568463   -1.5116311   -3.5686204 
H    -0.4448923   -1.8936643   -3.2494312 
