24
Energy =
C    -0.0406664    2.3127476   -1.6578888 
C    -0.6030660    2.5785912   -0.4486196 
C    -0.3059317    1.7958768    0.6134500 
C     0.8148383    1.2684218   -1.7975712 
C     1.1201109    0.4839524   -0.7271983 
C     0.5492589    0.7506956    0.4798211 
O    -1.4896449    3.6451807   -0.2707415 
H    -1.6591049    4.1872200   -1.1111897 
H     0.7679401    0.1256025    1.3426615 
H     1.2529807    1.0647549   -2.7715485 
H    -0.2754592    2.9333053   -2.5160555 
H    -0.7647583    2.0162669    1.5713272 
C     2.0585225   -0.6923912   -0.8874577 
C     1.3306411   -1.9453878   -1.4093031 
H     2.5451542   -0.9378630    0.0850182 
H     2.8818208   -0.4101286   -1.5821343 
C     2.3565312   -3.0145650   -1.7941070 
O     2.9015080   -3.8358853   -0.8149222 
O     2.8181304   -3.1410855   -3.1053594 
H     2.3842256   -2.4813087   -3.7330795 
N     0.3985603   -2.4231562   -0.3720918 
H     0.7557140   -1.6866666   -2.3281309 
H    -0.4680114   -1.8358161   -0.3926189 
H     0.0886927   -3.4001893   -0.5947153 
