24
Energy =
C    -0.1914933    2.1742188   -1.9696525 
C    -0.7170396    2.6592702   -0.8212977 
C    -0.3214668    2.1557511    0.3702454 
C     0.7307108    1.1787427   -1.9299971 
C     1.1354584    0.6661410   -0.7346313 
C     0.5986475    1.1589949    0.4174434 
O    -1.6609805    3.6797049   -0.8658359 
H    -2.5954334    3.2948590   -0.9535641 
H     0.8937082    0.7524411    1.3815457 
H     1.1347059    0.7810312   -2.8574395 
H    -0.5187329    2.5882793   -2.9172531 
H    -0.7508654    2.5523811    1.2842949 
C     2.1453528   -0.4638123   -0.6892710 
C     1.5089700   -1.8349731   -0.9779596 
H     2.6453756   -0.4952199    0.3048997 
H     2.9493992   -0.2734715   -1.4333822 
C     0.4066030   -2.1611274    0.0282309 
O    -0.9228500   -1.8329224   -0.2224565 
O     0.7391392   -2.7391195    1.2467339 
H    -0.1067580   -2.8725878    1.7860408 
N     1.0756042   -1.8725152   -2.3935609 
H     2.2930945   -2.6099699   -0.8073476 
H     1.6737374   -2.5496189   -2.9229892 
H     0.0905874   -2.2253800   -2.4780875 
