24
Energy =
C    -0.4549636    1.1353689    1.0843536 
C    -0.0928679    2.3854560    0.7179203 
C     0.8966953    2.5657137   -0.1860303 
C     0.1668314    0.0583410    0.5409277 
C     1.1550792    0.2288184   -0.3826105 
C     1.5212149    1.4936249   -0.7368666 
O    -0.7313693    3.4869388    1.2785534 
H    -1.5417597    3.7477953    0.7271424 
H     2.3158723    1.6581018   -1.4599356 
H    -0.1388826   -0.9402084    0.8437972 
H    -1.2455502    1.0069498    1.8155635 
H     1.1856806    3.5746048   -0.4614876 
C     1.8485290   -0.9734780   -0.9984487 
C     1.0191479   -1.6801754   -2.1035616 
H     2.0837631   -1.7075162   -0.1941830 
H     2.8315321   -0.6768236   -1.4268759 
C    -0.2495090   -2.3151741   -1.5504086 
O    -1.4582208   -1.6268326   -1.5347969 
O    -0.1846404   -3.5702714   -0.9627247 
H    -1.1148874   -3.8394391   -0.6673444 
N     0.7954751   -0.8031561   -3.2798356 
H     1.6146415   -2.5556806   -2.4512505 
H    -0.2289970   -0.6921497   -3.4780626 
H     1.1541893    0.1659520   -3.1278163 
