24
Energy =
C     0.0523712    2.3207167   -1.6259308 
C     0.0732076    3.0069453   -0.4592800 
C     0.5722657    2.4265345    0.6599610 
C     0.5409592    1.0576328   -1.6658549 
C     1.0317210    0.4609833   -0.5558140 
C     1.0579677    1.1567749    0.6141577 
O    -0.4243182    4.3049175   -0.4063636 
H     0.3074265    4.9772691   -0.6085371 
H     1.4652286    0.7077481    1.5160867 
H     0.5592560    0.3561020   -2.6103610 
H    -0.3585691    2.7833250   -2.5165060 
H     0.5790163    2.9861149    1.5894686 
C     1.6143933   -0.9397250   -0.6676142 
C     0.7569352   -1.9229503   -1.5316823 
H     1.7306063   -1.3664922    0.3531822 
H     2.6359380   -0.8610872   -1.1025052 
C     0.7447064   -1.5948123   -3.0520602 
O     0.5720369   -0.2853840   -3.4999581 
O     0.8057389   -2.5845274   -4.0285247 
H     0.7835453   -3.5127533   -3.6380937 
N     1.2102992   -3.3012082   -1.2704051 
H    -0.3081028   -1.8374851   -1.2135996 
H     2.2445548   -3.3716831   -1.4297680 
H     1.0282473   -3.5499211   -0.2689436 
