24
Energy =
C    -0.1905303    2.1194711   -2.0406802 
C    -0.5331441    2.7384822   -0.8796542 
C    -0.0470400    2.2744958    0.2938336 
C     0.6387238    1.0447350   -2.0212445 
C     1.1361711    0.5804626   -0.8415952 
C     0.7821679    1.2006462    0.3185195 
O    -1.3808395    3.8502365   -0.8647953 
H    -1.7214915    4.1225736   -1.7803784 
H     1.1523376    0.8364078    1.2738637 
H     0.8934237    0.5467416   -2.9529956 
H    -0.5830205    2.4789402   -2.9859727 
H    -0.3345961    2.7710376    1.2143124 
C     2.0543640   -0.6275505   -0.8175676 
C     1.2889652   -1.9582435   -0.9718985 
H     2.6342123   -0.6514380    0.1326343 
H     2.8056819   -0.5374420   -1.6316364 
C     0.2373161   -2.1371768    0.1238645 
O    -1.0183876   -2.6663344   -0.1595678 
O     0.5616723   -1.8588578    1.4475695 
H    -0.2400590   -2.0702910    2.0280488 
N     0.7366002   -2.0357865   -2.3395216 
H     2.0098449   -2.7934705   -0.8168600 
H     1.5115424   -2.2625232   -3.0057803 
H     0.0636380   -2.8392956   -2.4011808 
