24
Energy =
C     0.1353964    1.9004709    0.9336123 
C     0.1269433    2.8565555   -0.0334247 
C     0.7643297    2.6287050   -1.2041450 
C     0.7801255    0.7243774    0.7247086 
C     1.4245736    0.4954764   -0.4529722 
C     1.4100857    1.4546672   -1.4185804 
O    -0.5289286    4.0781904    0.1487698 
H    -0.9775204    4.1765199    1.0530922 
H     1.9166600    1.2887797   -2.3660229 
H     0.7751557   -0.0317563    1.5055795 
H    -0.3741421    2.0743138    1.8752727 
H     0.7501597    3.3992573   -1.9672407 
C     2.1303337   -0.8200659   -0.6998966 
C     1.2941491   -1.7825949   -1.5817591 
H     2.3923927   -1.3157915    0.2629616 
H     3.1018966   -0.6112141   -1.2030335 
C     2.0860757   -3.0232686   -1.9954018 
O     3.2469129   -3.3764106   -1.3144636 
O     1.6519723   -3.8352164   -3.0428824 
H     0.7379629   -3.5559072   -3.3702609 
N     0.0435964   -2.1635153   -0.9012348 
H     1.0475135   -1.2630694   -2.5357337 
H     0.2511837   -2.5359112    0.0565157 
H    -0.5740649   -1.3248912   -0.7909175 
