24
Energy =
C     0.7938684    2.1389749    0.8208574 
C    -0.0673463    2.7744325   -0.0071545 
C    -0.2914853    2.2913948   -1.2508293 
C     1.4418537    1.0213430    0.4040892 
C     1.2283174    0.5350549   -0.8501977 
C     0.3524552    1.1742507   -1.6745379 
O    -0.7312672    3.9187388    0.4240311 
H    -0.1845013    4.7478740    0.2193598 
H     0.1607673    0.7949903   -2.6752602 
H     2.1244964    0.5152497    1.0827351 
H     0.9529203    2.5295074    1.8200627 
H    -0.9932555    2.8029260   -1.9010573 
C     1.9307048   -0.7211372   -1.3144498 
C     1.0374073   -1.9739850   -1.1826944 
H     2.8691791   -0.8886937   -0.7368094 
H     2.2477822   -0.5897832   -2.3737502 
C     1.6455702   -3.1661997   -1.9117452 
O     0.8201185   -4.1876416   -2.3690793 
O     3.0187637   -3.2594355   -2.1187789 
H     3.2212083   -4.1340492   -2.5851633 
N     0.8262447   -2.2697162    0.2458951 
H     0.0582778   -1.7866226   -1.6826721 
H     0.1923520   -1.5433632    0.6548946 
H     0.3055747   -3.1754000    0.3362582 
