24
Energy =
C     1.1698379    2.5400385   -1.6836305 
C    -0.1275423    2.8480700   -1.4544015 
C    -0.8732110    2.0714256   -0.6362532 
C     1.7254494    1.4475440   -1.0997018 
C     0.9802731    0.6573672   -0.2765416 
C    -0.3250412    0.9779675   -0.0482984 
O    -0.6932819    3.9682849   -2.0540585 
H    -1.0711374    3.7320228   -2.9652297 
H    -0.9403260    0.3572492    0.5984695 
H     2.7671344    1.2096551   -1.2978781 
H     1.7570081    3.1771684   -2.3362752 
H    -1.9117719    2.3302527   -0.4583553 
C     1.5928329   -0.5719556    0.3651654 
C     1.3462207   -1.8724532   -0.4391013 
H     1.1841699   -0.6962433    1.3940746 
H     2.6877155   -0.4273625    0.4971970 
C    -0.1295471   -2.2400811   -0.4983233 
O    -0.9453898   -1.7905696   -1.5332805 
O    -0.7008418   -2.9433411    0.5557985 
H    -1.6782860   -3.1068473    0.3507607 
N     1.9694343   -1.8027874   -1.7744666 
H     1.8212976   -2.7118075    0.1181544 
H     1.4633887   -1.1071366   -2.3739833 
H     2.9668711   -1.4960761   -1.6948265 
