24
Energy =
C    -0.7440391    1.8541222   -1.7708695 
C    -0.3475584    2.6885956   -0.7729910 
C     0.7003508    2.3441245    0.0094880 
C    -0.0893759    0.6837023   -1.9818865 
C     0.9730470    0.3417361   -1.2014063 
C     1.3591960    1.1759114   -0.1978538 
O    -0.9998027    3.9016174   -0.5296052 
H    -1.7776447    4.0851312   -1.1538341 
H     2.1896195    0.9089977    0.4508797 
H    -0.4229933    0.0208224   -2.7768204 
H    -1.5874729    2.1196666   -2.3991929 
H     1.0011572    3.0140276    0.8074953 
C     1.6898494   -0.9722342   -1.4214876 
C     1.0298627   -2.1146167   -0.6274800 
H     2.7600163   -0.8845666   -1.1277497 
H     1.6904667   -1.2177872   -2.5078629 
C     1.5560667   -3.4629145   -1.0914363 
O     2.7944281   -3.9275101   -0.6646479 
O     0.8295833   -4.2110767   -2.0053719 
H     1.3411014   -5.0623939   -2.2020859 
N     1.2393523   -1.8902800    0.8157975 
H    -0.0640742   -2.1250588   -0.8461529 
H     0.7011052   -2.6120967    1.3518017 
H     2.2489719   -2.0549592    1.0506495 
