24
Energy =
C     1.5487856    1.6497883    0.9831780 
C     0.6868541    2.5767629    0.5058848 
C     0.1224949    2.4130103   -0.7118328 
C     1.8467550    0.5505493    0.2444174 
C     1.2847278    0.3787851   -0.9855157 
C     0.4156944    1.3163457   -1.4564709 
O     0.3825685    3.7014500    1.2653498 
H    -0.4223897    3.5217142    1.8563979 
H    -0.0623118    1.1788959   -2.4223513 
H     2.5251293   -0.1944503    0.6524425 
H     1.9910373    1.7930898    1.9631778 
H    -0.5703162    3.1626537   -1.0790736 
C     1.5897704   -0.8636733   -1.8014678 
C     0.4262333   -1.8765873   -1.7939370 
H     2.5084091   -1.3599554   -1.4172700 
H     1.8186453   -0.5688215   -2.8487927 
C    -0.0216637   -2.2055089   -0.3627492 
O    -1.1598742   -1.6126576    0.1712431 
O     0.7245472   -3.0639575    0.4454884 
H     1.5279181   -3.4359549   -0.0370098 
N    -0.6646651   -1.3566501   -2.6405625 
H     0.7927706   -2.8326746   -2.2336841 
H    -0.4466316   -1.5594261   -3.6444559 
H    -1.5535377   -1.8727512   -2.4265239 
