24
Energy =
C     1.7273455    2.1012781    0.5364304 
C     0.9620863    2.9008903   -0.2418421 
C     0.3724818    2.4013744   -1.3520644 
C     1.9138506    0.7989011    0.2015640 
C     1.3302761    0.2909702   -0.9197939 
C     0.5536716    1.0999281   -1.6935628 
O     0.7722792    4.2346698    0.1047807 
H     1.4960314    4.8175576   -0.3011136 
H     0.0705446    0.7100455   -2.5866168 
H     2.5261584    0.1674694    0.8407790 
H     2.1818660    2.5127693    1.4312644 
H    -0.2492870    3.0507124   -1.9598850 
C     1.5201953   -1.1627145   -1.2915981 
C     0.2912344   -2.0296970   -0.9282500 
H     2.4257831   -1.5875329   -0.8009592 
H     1.7184503   -1.2310793   -2.3854012 
C     0.4089810   -3.4040457   -1.5593473 
O    -0.5697378   -3.8560655   -2.4369587 
O     1.5271156   -4.1946111   -1.3175311 
H     1.4136915   -5.0751336   -1.8031852 
N     0.1375428   -2.1297433    0.5346166 
H    -0.6339151   -1.5849457   -1.3638776 
H     0.9985191   -2.5537577    0.9576899 
H    -0.0042498   -1.1818802    0.9549838 
