24
Energy =
C    -0.1979569    2.3403179   -2.0176606 
C    -1.0336740    2.5123631   -0.9682532 
C    -0.8506377    1.7999528    0.1667786 
C     0.8319424    1.4614142   -1.9322926 
C     1.0300707    0.7452896   -0.7890290 
C     0.1785274    0.9197961    0.2609620 
O    -2.0865201    3.4169293   -1.0587829 
H    -1.7921198    4.3416278   -0.7652431 
H     0.3082467    0.3493460    1.1773575 
H     1.4915770    1.3331101   -2.7861879 
H    -0.3648688    2.9070091   -2.9268944 
H    -1.5387411    1.9342245    0.9949480 
C     2.1754887   -0.2437443   -0.6932653 
C     1.7666574   -1.6981474   -1.0353546 
H     2.6056121   -0.2156534    0.3337016 
H     3.0019634    0.0677416   -1.3695485 
C     0.8103414   -2.2856874   -0.0070913 
O    -0.5688732   -2.1635393   -0.1490510 
O     1.3190022   -2.8694161    1.1470842 
H     0.5469916   -3.2088473    1.7063324 
N     1.2522338   -1.8023109   -2.4138877 
H     2.6802491   -2.3306701   -0.9629893 
H     0.3225347   -1.3229027   -2.4897677 
H     1.9083906   -1.3344692   -3.0817451 
