24
Energy =
C    -0.7293132    1.6387311    0.6297863 
C    -0.5043046    2.7508698   -0.1052844 
C     0.5189921    2.7820032   -0.9885857 
C     0.0667047    0.5485552    0.4795046 
C     1.0918154    0.5639058   -0.4187030 
C     1.3164464    1.6949490   -1.1475037 
O    -1.3203129    3.8660158    0.0536259 
H    -2.1084560    3.8231975   -0.5831574 
H     2.1343942    1.7400060   -1.8615685 
H    -0.1373379   -0.3432332    1.0689022 
H    -1.5533176    1.6302605    1.3358185 
H     0.6953373    3.6847748   -1.5639411 
C     1.9926039   -0.6484312   -0.5899590 
C     1.3565135   -1.8257817   -1.3815505 
H     2.3066971   -1.0084409    0.4159363 
H     2.9344408   -0.3537709   -1.1034517 
C     0.2596255   -2.5316237   -0.5973846 
O     0.5614147   -3.6766038    0.1265158 
O    -1.0224559   -2.0045254   -0.5060301 
H    -1.5697183   -2.3848247   -1.2656222 
N     0.8946493   -1.4195722   -2.7283801 
H     2.1523228   -2.6001460   -1.4909659 
H     1.0477110   -0.4032792   -2.9180570 
H     1.4279584   -1.9439653   -3.4612232 
