24
Energy =
C    -0.7543581    1.3624853    0.8622796 
C    -0.2526509    2.5376460    0.4173652 
C     0.8827594    2.5538297   -0.3178611 
C    -0.1256270    0.1963936    0.5663632 
C     1.0174675    0.2047411   -0.1750354 
C     1.5173108    1.3919512   -0.6179120 
O    -0.9002133    3.7307629    0.7221837 
H    -1.5957210    3.9520631    0.0182060 
H     2.4284707    1.4186111   -1.2106328 
H    -0.5426894   -0.7398528    0.9280425 
H    -1.6595421    1.3660252    1.4597017 
H     1.2799812    3.5037534   -0.6599956 
C     1.7177564   -1.0907947   -0.5213507 
C     1.4286181   -1.5487521   -1.9746594 
H     1.4348680   -1.8974660    0.1926494 
H     2.8145342   -0.9473108   -0.3862769 
C     2.2980523   -2.7364460   -2.3957799 
O     3.1123514   -3.3767097   -1.4665862 
O     2.3017424   -3.1924887   -3.7134341 
H     1.6061055   -2.7127267   -4.2676055 
N    -0.0014350   -1.8589337   -2.1463862 
H     1.7053407   -0.7238941   -2.6699979 
H    -0.3147079   -2.5401083   -1.4139691 
H    -0.5714956   -0.9874277   -2.0362229 
