24
Energy =
C     0.9150822    2.4520637    0.2380012 
C     0.2116689    2.9115919   -0.8224814 
C     0.0275345    2.1224851   -1.9055001 
C     1.4440872    1.2019348    0.2164881 
C     1.2656425    0.4024053   -0.8723218 
C     0.5531864    0.8715843   -1.9348250 
O    -0.3295504    4.1931911   -0.7961802 
H     0.3357024    4.8703881   -1.1527115 
H     0.3976595    0.2495677   -2.8128366 
H     2.0067141    0.8487716    1.0769542 
H     1.0453057    3.0927284    1.1034273 
H    -0.5463826    2.4989169   -2.7457318 
C     1.8430476   -0.9962466   -0.9036968 
C     0.7551877   -2.0864940   -0.7251814 
H     2.6254553   -1.1328042   -0.1219800 
H     2.3678801   -1.1424337   -1.8749234 
C     1.3037035   -3.4649119   -1.0547808 
O     0.4856934   -4.4123692   -1.6611737 
O     2.6282521   -3.7898350   -0.7767004 
H     2.7842103   -4.7571806   -1.0280994 
N     0.1929733   -2.0686544    0.6429784 
H    -0.0539776   -1.9154161   -1.4740003 
H     0.5786826   -1.2961858    1.2329203 
H    -0.8429279   -1.9212283    0.5955358 
