24
Energy =
C     0.3660011    2.6094010   -1.4779453 
C    -0.1675007    2.8745702   -0.2644195 
C    -0.0095016    1.9819499    0.7484241 
C     1.0556253    1.4609817   -1.6897627 
C     1.2189733    0.5617134   -0.6791939 
C     0.6822157    0.8324633    0.5432112 
O    -0.8713656    4.0697784   -0.0853548 
H    -1.2568241    4.1882458    0.8450565 
H     0.7862219    0.1208512    1.3587039 
H     1.4723045    1.2672647   -2.6741142 
H     0.2315765    3.3261316   -2.2802134 
H    -0.4414203    2.1821065    1.7224810 
C     1.9856133   -0.7263481   -0.9153467 
C     1.0990572   -1.8861005   -1.4286167 
H     2.5000696   -1.0370847    0.0216902 
H     2.7961196   -0.5392565   -1.6536493 
C     0.1484494   -2.4094882   -0.3577627 
O     0.3147071   -3.6950022    0.1391556 
O    -0.8979814   -1.6368351    0.1264124 
H    -1.7045860   -1.7980984   -0.4578500 
N     0.3868024   -1.4813605   -2.6545095 
H     1.7743597   -2.7413164   -1.6667963 
H     1.0862459   -1.2225103   -3.3897766 
H    -0.1391171   -2.3039798   -3.0350941 
