24
Energy =
C     0.8482705    2.5688667   -1.1926596 
C    -0.0986474    2.7430371   -0.2426212 
C    -0.3931838    1.7234613    0.6073413 
C     1.5058787    1.3862176   -1.3008262 
C     1.2219153    0.3655129   -0.4454763 
C     0.2622064    0.5393858    0.5044531 
O    -0.7542649    3.9758245   -0.1638864 
H    -1.4524354    4.0261157    0.5701152 
H     0.0069714   -0.2753928    1.1780781 
H     2.2582201    1.2653369   -2.0762291 
H     1.0701104    3.3888715   -1.8672858 
H    -1.1568716    1.8503992    1.3671172 
C     1.9381717   -0.9618375   -0.5737477 
C     1.1093844   -1.9786735   -1.3875775 
H     2.1541581   -1.3783029    0.4359484 
H     2.9325553   -0.8093016   -1.0524922 
C     1.9517447   -3.1782403   -1.8260755 
O     3.0825626   -3.5359128   -1.1010000 
O     1.5919797   -3.9489430   -2.9305612 
H     0.7176653   -3.6473511   -3.3345426 
N    -0.0642015   -2.3858277   -0.5930270 
H     0.7694299   -1.4791446   -2.3246841 
H    -0.7135111   -2.9466200   -1.1947113 
H     0.2395629   -3.0213555    0.1853982 
