24
Energy =
C     0.3950519    2.2179680    0.5445445 
C     0.3949894    3.0043036   -0.5565210 
C     0.8265851    2.5115241   -1.7399840 
C     0.8343453    0.9358426    0.4675950 
C     1.2839427    0.4373372   -0.7176509 
C     1.2720393    1.2320765   -1.8241407 
O    -0.0609921    4.3160401   -0.4739971 
H     0.6926371    4.9414382   -0.2110474 
H     1.6044970    0.8459582   -2.7863924 
H     0.8227673    0.3139329    1.3592018 
H     0.0330556    2.6233987    1.4830739 
H     0.8048802    3.1460801   -2.6200845 
C     1.7482780   -0.9992298   -0.8127501 
C     0.5952666   -1.9597092   -1.1489606 
H     2.2155139   -1.3074344    0.1492374 
H     2.5504651   -1.1042465   -1.5799819 
C     0.0727042   -1.7151156   -2.5705924 
O     0.7444565   -2.2606266   -3.6567353 
O    -1.0336558   -0.9016980   -2.8159080 
H    -1.3746440   -0.4482802   -1.9822036 
N     1.0960224   -3.3358300   -0.9438547 
H    -0.2564563   -1.7673289   -0.4555493 
H     0.6477437   -3.7587567   -0.0974200 
H     0.8588137   -3.9614210   -1.7537598 
