24
Energy =
C     0.0280976    2.3835235   -1.4312956 
C    -0.4394440    2.6374612   -0.1799349 
C    -0.1231135    1.8007584    0.8343295 
C     0.8079811    1.2967963   -1.6604662 
C     1.1300755    0.4557482   -0.6392130 
C     0.6565106    0.7124768    0.6111435 
O    -1.2462267    3.7473334    0.0905969 
H    -1.4367510    4.3271483   -0.7195616 
H     0.8944475    0.0493559    1.4387119 
H     1.1725381    1.1045512   -2.6666933 
H    -0.2215570    3.0479677   -2.2514591 
H    -0.5043972    2.0142306    1.8270084 
C     1.9865243   -0.7641133   -0.9003180 
C     1.1842795   -1.9190213   -1.5542264 
H     2.4637808   -1.1228848    0.0389755 
H     2.8303954   -0.4642946   -1.5640516 
C     2.0956758   -3.0625668   -2.0160496 
O     3.4401774   -2.8182176   -2.2712791 
O     1.5937302   -4.3351042   -2.2790845 
H     0.6111762   -4.3830804   -2.0518250 
N     0.1342255   -2.3965819   -0.6318169 
H     0.7084084   -1.5455089   -2.4905932 
H     0.5422909   -2.6046787    0.3119010 
H    -0.5927354   -1.6522984   -0.5016919 
