24
Energy =
C     0.3229248    2.3500163    0.1297321 
C    -0.6739360    1.8646434    0.9053267 
C    -0.8221464    0.5288602    1.0593770 
C     1.1869945    1.5001092   -0.4812805 
C     1.0531181    0.1544207   -0.3187524 
C     0.0352819   -0.3273455    0.4477048 
O    -1.5530653    2.7383103    1.5385259 
H    -1.2116511    2.9852579    2.4606346 
H    -0.1004371   -1.3983070    0.5711434 
H     1.9763948    1.9036171   -1.1115572 
H     0.4167733    3.4221631   -0.0040431 
H    -1.6370557    0.1531486    1.6685194 
C     1.9973688   -0.7970602   -1.0209130 
C     1.4512693   -1.2342387   -2.4029175 
H     2.1556887   -1.6945028   -0.3814142 
H     2.9980190   -0.3231055   -1.1411775 
C     1.2760670   -0.0488363   -3.3518223 
O    -0.0028155    0.4223656   -3.6242704 
O     2.3689547    0.6101633   -3.9148289 
H     3.2254028    0.1235841   -3.6970361 
N     2.3276088   -2.2647912   -3.0020491 
H     0.4243824   -1.6501428   -2.2606917 
H     3.1560480   -2.4944536   -2.4027082 
H     1.7919222   -3.1565557   -3.1285784 
