24
Energy =
C     0.6282566    2.5177207   -1.1774252 
C     0.3418180    2.7804469    0.1254843 
C     0.5279638    1.8186739    1.0576386 
C     1.0970302    1.2969122   -1.5399881 
C     1.2827801    0.3265284   -0.6025968 
C     0.9962991    0.5957221    0.7010938 
O    -0.1436008    4.0271858    0.5329278 
H    -0.2540327    4.6946464   -0.2227721 
H     1.1400060   -0.1614347    1.4676831 
H     1.3233465    1.1028320   -2.5857517 
H     0.4834793    3.2832795   -1.9320792 
H     0.2971803    2.0423700    2.0935550 
C     1.7989552   -1.0362902   -1.0123205 
C     0.7228492   -1.8713316   -1.7519713 
H     2.1689331   -1.6107705   -0.1319457 
H     2.6855551   -0.8931007   -1.6715910 
C     1.3480210   -3.0861955   -2.4115407 
O     2.0888633   -3.9990928   -1.6666814 
O     1.2275541   -3.2670620   -3.7844023 
H     1.6885794   -4.1307360   -4.0405193 
N    -0.3668290   -2.2810012   -0.8393926 
H     0.3105483   -1.2685501   -2.5959252 
H    -0.2687206   -1.8738642    0.1188729 
H    -1.2849422   -1.9461271   -1.2155683 
