24
Energy =
C     1.1563091    2.4725860   -1.7961038 
C    -0.1077606    2.8192631   -1.4635953 
C    -0.7955207    2.0681926   -0.5634999 
C     1.7402580    1.3819012   -1.2379514 
C     1.0577007    0.6269706   -0.3328989 
C    -0.2156739    0.9784069    0.0006436 
O    -0.6740565    3.9500036   -2.0600489 
H    -1.6310425    4.1332301   -1.7789541 
H    -0.7819192    0.3830875    0.7128943 
H     2.7544133    1.1169969   -1.5247105 
H     1.6935013    3.0782541   -2.5184773 
H    -1.8119171    2.3354540   -0.2966947 
C     1.7034267   -0.5992051    0.2823376 
C     1.3299836   -1.9190239   -0.4373863 
H     1.4133477   -0.6724156    1.3554064 
H     2.8101613   -0.4879210    0.2820592 
C    -0.1419641   -2.2679069   -0.2704127 
O    -1.0965263   -1.8337119   -1.1862357 
O    -0.5596052   -2.9344416    0.8756731 
H    -1.5574969   -3.0931273    0.8191840 
N     1.7538592   -1.8980880   -1.8503344 
H     1.8720682   -2.7483731    0.0716097 
H     1.1717297   -1.2147401   -2.3928003 
H     2.7540326   -1.5993574   -1.9254354 
