24
Energy =
C    -0.1442281    1.7005296    1.0015096 
C     0.4770003    2.7261287    0.3751689 
C     1.4321632    2.4757682   -0.5492070 
C     0.1935389    0.4182705    0.7109262 
C     1.1577601    0.1574237   -0.2163091 
C     1.7757756    1.1963617   -0.8451961 
O     0.1280979    4.0388857    0.6760656 
H     0.6812886    4.3888887    1.4505864 
H     2.5462084    1.0098477   -1.5893082 
H    -0.3144546   -0.3941415    1.2234353 
H    -0.9159120    1.9170623    1.7321514 
H     1.9155930    3.3071261   -1.0516946 
C     1.5391253   -1.2689703   -0.5537456 
C     0.9846422   -1.7198163   -1.9313876 
H     1.1957764   -1.9770059    0.2343881 
H     2.6509949   -1.3432893   -0.5547936 
C     1.6349766   -3.0249238   -2.4003618 
O     2.2438034   -3.8732794   -1.4826855 
O     1.5893932   -3.4089877   -3.7394237 
H     1.0600881   -2.7560059   -4.2998064 
N    -0.4970047   -1.7975669   -1.9215698 
H     1.2859422   -0.9618802   -2.6890247 
H    -0.8350042   -2.7625926   -2.1590279 
H    -0.9030918   -1.5817645   -0.9823052 
