24
Energy =
C    -0.2151915    2.2861640   -1.1593236 
C    -0.4451498    2.4541596    0.1702317 
C     0.1386466    1.6201269    1.0604425 
C     0.5959805    1.2869609   -1.5900004 
C     1.1870865    0.4485177   -0.6943746 
C     0.9503861    0.6188082    0.6354061 
O    -1.2762465    3.4717163    0.6481728 
H    -1.6741046    4.0578161   -0.0780747 
H     1.4083558   -0.0427630    1.3658968 
H     0.7698909    1.1623109   -2.6563107 
H    -0.6800462    2.9495693   -1.8808584 
H    -0.0541449    1.7658777    2.1180529 
C     2.0753035   -0.6766359   -1.1779399 
C     1.2536471   -1.8792375   -1.7012094 
H     2.7673286   -1.0073315   -0.3713214 
H     2.7299455   -0.2893191   -1.9934796 
C     2.1432745   -2.8830430   -2.4271056 
O     2.0824942   -2.9540743   -3.8132751 
O     3.0722441   -3.6784646   -1.7559925 
H     3.0222964   -3.5503521   -0.7584828 
N     0.4873882   -2.5105292   -0.6091069 
H     0.5425897   -1.5243269   -2.4854840 
H     1.0806107   -2.6326258    0.2446828 
H    -0.3130963   -1.8910052   -0.3393877 
