24
Energy =
C     1.0132818    2.6095222   -1.3897039 
C     0.7580823    2.8951853   -0.0922294 
C     0.8101559    1.9156695    0.8396634 
C     1.3328750    1.3432597   -1.7589676 
C     1.3989817    0.3539382   -0.8242892 
C     1.1273038    0.6462389    0.4778748 
O     0.4293235    4.1937202    0.2824179 
H     1.2630457    4.7223301    0.5144065 
H     1.1588090   -0.1325148    1.2358605 
H     1.5250576    1.1262555   -2.8078603 
H     0.9508512    3.4010020   -2.1289415 
H     0.5888142    2.1556460    1.8744811 
C     1.7215231   -1.0657025   -1.2348591 
C     0.4399212   -1.8970022   -1.4788749 
H     2.3366994   -1.5461217   -0.4420734 
H     2.3491863   -1.0681836   -2.1562161 
C    -0.4072958   -1.3194023   -2.6035808 
O     0.0994512   -1.2393079   -3.8956632 
O    -1.6572514   -0.7772558   -2.3315139 
H    -1.5394368    0.1512456   -1.9526798 
N     0.8028260   -3.2992601   -1.7486436 
H    -0.2085326   -1.8648395   -0.5726283 
H     1.3896763   -3.3566325   -2.6167207 
H     1.3658042   -3.6882530   -0.9561492 
