24
Energy =
C    -0.4082820    1.7541704    0.5770222 
C    -0.1517041    2.7181608   -0.3360711 
C     0.7443454    2.4797929   -1.3310770 
C     0.2251476    0.5558267    0.5083777 
C     1.1307046    0.3158516   -0.4788279 
C     1.3797304    1.2826346   -1.4050395 
O    -0.8232862    3.9405004   -0.2306621 
H    -0.5804113    4.6078902   -0.9546068 
H     2.0861395    1.1042340   -2.2123608 
H    -0.0052846   -0.2148020    1.2395444 
H    -1.1319754    1.9531177    1.3600547 
H     0.9519974    3.2445228   -2.0718298 
C     1.8216619   -1.0270528   -0.5717347 
C     0.9780676   -2.0409379   -1.3662064 
H     2.0278421   -1.4276205    0.4459679 
H     2.8163583   -0.9018571   -1.0574661 
C     1.8076655   -3.2611572   -1.7313514 
O     2.1514184   -4.1983538   -0.7642734 
O     2.2760882   -3.4199769   -3.0266119 
H     2.8123329   -4.2774405   -3.0719161 
N    -0.2251328   -2.3905759   -0.5861473 
H     0.6739597   -1.5779451   -2.3353187 
H    -0.8593241   -2.9679385   -1.1885756 
H     0.0488498   -3.0108640    0.2152677 
