24
Energy =
C    -0.1433443    1.4500604    1.0954440 
C    -0.1943448    2.5412056    0.2976858 
C     0.4161729    2.5262313   -0.9090406 
C     0.5312469    0.3421169    0.6940432 
C     1.1588606    0.3219066   -0.5159064 
C     1.0911001    1.4218223   -1.3178516 
O    -0.8820595    3.6762739    0.7150421 
H    -0.2721891    4.2916135    1.2414499 
H     1.5663481    1.4187788   -2.2951713 
H     0.5561244   -0.5312342    1.3419385 
H    -0.6549249    1.4705936    2.0517510 
H     0.3529012    3.4008724   -1.5477299 
C     1.9040750   -0.9168773   -0.9777055 
C     1.0250264   -1.8623517   -1.8254530 
H     2.3062880   -1.4715772   -0.1002866 
H     2.7906159   -0.6146955   -1.5765627 
C    -0.1300819   -2.4567260   -1.0206206 
O     0.0392420   -2.7724911    0.3245655 
O    -1.3209645   -2.8118450   -1.6432072 
H    -1.9414930   -3.2158588   -0.9535350 
N     0.5784187   -1.1461475   -3.0360144 
H     1.6461813   -2.7374324   -2.1237034 
H     1.3716441   -1.1003519   -3.7161549 
H    -0.1822383   -1.6948282   -3.5084181 
