24
Energy =
C     0.3253824    2.4686786   -0.1105522 
C     0.0283459    2.0458667    1.1413940 
C     0.3085612    0.7756495    1.5119638 
C     0.9266661    1.6183058   -0.9950415 
C     1.2257021    0.3464354   -0.6161310 
C     0.9028164   -0.0749495    0.6371839 
O    -0.5851043    2.9142291    2.0378464 
H     0.1000421    3.4816610    2.5264947 
H     1.1102544   -1.0975767    0.9448836 
H     1.1470371    1.9243778   -2.0430175 
H     0.0486140    3.4880304   -0.3793240 
H     0.0453322    0.4428186    2.5107569 
C     1.8734302   -0.5956641   -1.6065153 
C     0.8583535   -1.1222953   -2.6640453 
H     2.3494388   -1.4491839   -1.0706404 
H     2.7256859   -0.0724887   -2.1039379 
C     1.2745913   -0.7564280   -4.0970114 
O     1.5304364   -1.7594277   -5.0367748 
O     1.4095193    0.6023144   -4.4557734 
H     1.2152273    1.2850116   -3.7123387 
N     0.6606406   -2.5719606   -2.4552586 
H    -0.1226904   -0.6033294   -2.5497118 
H    -0.1092766   -2.9143771   -3.0808125 
H     1.5225453   -3.0947606   -2.7479482 
