24
Energy =
C    -0.5966448    2.3112060   -0.4274891 
C    -0.4982788    2.0746099    0.9074576 
C     0.3943474    1.1650587    1.3602281 
C     0.1937214    1.6384242   -1.3004616 
C     1.0920425    0.7206423   -0.8464445 
C     1.1898390    0.4912512    0.4918093 
O    -1.3004232    2.7504385    1.8338726 
H    -1.9446532    3.4186047    1.4263217 
H     1.9010569   -0.2366427    0.8774422 
H     0.1015466    1.8400319   -2.3643968 
H    -1.3076407    3.0394976   -0.7978389 
H     0.4657580    0.9806747    2.4273570 
C     1.9773722   -0.0348147   -1.8171436 
C     1.4461228   -1.4438814   -2.1885049 
H     2.9958940   -0.1356913   -1.3753958 
H     2.1213691    0.5604653   -2.7467997 
C     1.3325469   -2.3894753   -0.9879873 
O     2.4334027   -3.1649696   -0.6442039 
O     0.1975984   -2.4570517   -0.1792692 
H    -0.5190232   -1.8281982   -0.5010573 
N     0.2042334   -1.3534838   -2.9798141 
H     2.2210439   -1.9270978   -2.8294493 
H    -0.4956484   -0.7318483   -2.5144216 
H     0.4187680   -0.9151030   -3.9066750 
