24
Energy =
C     1.8175369    1.8134578    0.9717273 
C     1.3328322    2.8242526    0.2138477 
C     0.9581828    2.5916634   -1.0651603 
C     1.9226645    0.5628090    0.4544850 
C     1.5474761    0.3213343   -0.8324843 
C     1.0604900    1.3438610   -1.5894545 
O     1.2253560    4.1048114    0.7475425 
H     0.3241687    4.2327439    1.1943190 
H     0.7541141    1.1709602   -2.6181917 
H     2.3075879   -0.2422198    1.0763114 
H     2.1224214    2.0163957    1.9925919 
H     0.5796836    3.4123784   -1.6652692 
C     1.6485055   -1.0723399   -1.4111365 
C     0.2942066   -1.8137210   -1.3790943 
H     2.4038272   -1.6756818   -0.8561065 
H     2.0257096   -1.0032662   -2.4568213 
C     0.3339548   -3.0581082   -2.2525616 
O     1.4420318   -3.9000135   -2.2538592 
O    -0.7521704   -3.3628998   -3.0635648 
H    -0.5622732   -4.2291851   -3.5513965 
N    -0.0439141   -2.1453289    0.0171820 
H    -0.5000928   -1.1690517   -1.8250177 
H    -0.2909323   -1.2661208    0.5291248 
H    -0.9122890   -2.7327348    0.0307022 
