24
Energy =
C    -0.2149604    1.9250193    0.5490379 
C     0.0906607    2.8743860   -0.3643513 
C     0.9312205    2.5862358   -1.3838692 
C     0.3269666    0.6840576    0.4510230 
C     1.1737644    0.3836167   -0.5743313 
C     1.4757344    1.3472617   -1.4900221 
O    -0.4614906    4.1471573   -0.2566240 
H     0.1250944    4.7438247    0.3156301 
H     2.1533627    1.1363941   -2.3125084 
H     0.0747858   -0.0668772    1.1965425 
H    -0.8993229    2.1678443    1.3546370 
H     1.1618913    3.3542857   -2.1144391 
C     1.7807284   -1.0031408   -0.6866556 
C     0.8242286   -2.0591382   -1.3065183 
H     2.0880179   -1.3444012    0.3286489 
H     2.7183205   -0.9686953   -1.2840683 
C    -0.4375469   -2.2547092   -0.4784578 
O    -0.3277433   -2.6723960    0.8446648 
O    -1.7023531   -2.0173335   -1.0016624 
H    -2.3922572   -2.2157040   -0.2913027 
N     0.5171612   -1.7605802   -2.7221914 
H     1.3409113   -3.0448342   -1.2433383 
H     0.9707899   -0.8827550   -3.0604114 
H     0.8531809   -2.5390110   -3.3353318 
