24
Energy =
C     1.2042159    2.4604834   -0.2482654 
C     0.1763852    2.5377512    0.6279091 
C    -0.3906231    1.4075662    1.1072014 
C     1.6654579    1.2500042   -0.6538202 
C     1.0985212    0.1054535   -0.1788891 
C     0.0645206    0.1935128    0.7058009 
O    -0.2940925    3.7798380    1.0415505 
H    -1.0178101    4.1125086    0.4137752 
H    -0.4073091   -0.7053660    1.0946850 
H     2.4839694    1.2028222   -1.3670674 
H     1.6518507    3.3751009   -0.6212202 
H    -1.2116219    1.4823043    1.8124747 
C     1.6034532   -1.2477724   -0.6446088 
C     0.9613970   -1.6996265   -1.9753604 
H     1.4159442   -2.0161086    0.1389176 
H     2.7071985   -1.2054541   -0.7701113 
C    -0.5462129   -1.9146562   -1.8477351 
O    -1.0813389   -2.4425501   -0.6762309 
O    -1.3874195   -1.7196307   -2.9376216 
H    -2.3354972   -1.9454696   -2.6656852 
N     1.3243993   -0.7349966   -3.0327787 
H     1.3659702   -2.7047742   -2.2350473 
H     2.3147592   -0.9022108   -3.3255044 
H     0.7331606   -0.9046876   -3.8840785 
