24
Energy =
C     0.2932665    2.4973917   -1.5799538 
C    -0.1559201    2.7469110   -0.3287342 
C     0.0376191    1.8374979    0.6536354 
C     0.9475859    1.3404564   -1.8516802 
C     1.1561863    0.4222897   -0.8655109 
C     0.6940680    0.6788659    0.3906655 
O    -0.8241252    3.9360079   -0.0539960 
H    -0.1690068    4.6652527    0.2049013 
H     0.8344180   -0.0458905    1.1893037 
H     1.2981939    1.1547164   -2.8631755 
H     0.1183302    3.2283956   -2.3613382 
H    -0.3438845    2.0406734    1.6488746 
C     1.8789112   -0.8761851   -1.1668307 
C     0.9240861   -2.0578346   -1.4696757 
H     2.5313685   -1.1445843   -0.3045869 
H     2.5675189   -0.7360360   -2.0288538 
C     0.1354325   -2.4845214   -0.2430615 
O    -1.1078078   -1.9314931    0.0469501 
O     0.7043898   -3.3760959    0.6570208 
H     0.0434072   -3.5489670    1.4040723 
N     0.0588369   -1.7665075   -2.6293871 
H     1.5453712   -2.9505593   -1.7127123 
H    -0.6607109   -1.0484127   -2.3676426 
H     0.6234957   -1.3799471   -3.4208672 
