24
Energy =
C    -0.3483447    2.0490719   -1.8558019 
C    -0.7686598    2.4783424   -0.6434212 
C    -0.2614862    1.9270244    0.4830869 
C     0.5774220    1.0604131   -1.9462972 
C     1.0937002    0.5012878   -0.8162869 
C     0.6650631    0.9384444    0.4010806 
O    -1.7176052    3.4917773   -0.5546069 
H    -2.6557409    3.1068155   -0.5555427 
H     1.0582913    0.4994202    1.3151596 
H     0.9034216    0.7233734   -2.9275253 
H    -0.7571940    2.5067662   -2.7502232 
H    -0.6015811    2.2852776    1.4492064 
C     2.1148765   -0.6102856   -0.9167684 
C     1.4575195   -1.9824854   -1.1693615 
H     2.7284696   -0.6694098    0.0107243 
H     2.8306796   -0.3742478   -1.7369599 
C     2.5064588   -3.0032724   -1.5797433 
O     2.2245847   -3.9212913   -2.5805140 
O     3.7321429   -3.0636339   -0.9307512 
H     3.6095584   -3.5847666   -0.0744676 
N     0.7391933   -2.4118398    0.0441991 
H     0.7500915   -1.9068948   -2.0292707 
H    -0.1142529   -1.8165685    0.1620087 
H     0.3743659   -3.3846651   -0.1031856 
