24
Energy =
C     0.6972099    2.5233730   -1.3946003 
C     0.0077376    2.7858359   -0.2521945 
C    -0.0797691    1.8380056    0.7084821 
C     1.2949523    1.3174364   -1.5689467 
C     1.2126712    0.3647745   -0.5994194 
C     0.5161668    0.6305117    0.5398829 
O    -0.6210013    4.0170056   -0.0415270 
H    -0.5080395    4.6750468   -0.8051080 
H     0.4263498   -0.1225975    1.3194646 
H     1.8390106    1.1205516   -2.4897424 
H     0.7703620    3.2765190   -2.1718642 
H    -0.6359866    2.0587577    1.6131506 
C     1.8628138   -0.9861172   -0.8023922 
C     0.9790211   -1.9346755   -1.6383258 
H     2.0812570   -1.4693545    0.1775908 
H     2.8494613   -0.8462734   -1.2991023 
C     1.7650830   -3.1580021   -2.0826156 
O     2.7990239   -3.6704700   -1.3048375 
O     1.4390692   -3.7864632   -3.2771094 
H     2.0432933   -4.5894709   -3.3994360 
N    -0.2074371   -2.3143792   -0.8498015 
H     0.6666721   -1.4246393   -2.5801198 
H    -0.8713898   -1.5054950   -0.8238676 
H    -0.7212828   -3.0800267   -1.3509326 
