24
Energy =
C     0.0177371    2.4482587   -1.5551903 
C    -0.6730683    2.5231687   -0.3947184 
C    -0.4610648    1.6090334    0.5794285 
C     0.9304901    1.4625974   -1.7430713 
C     1.1574083    0.5418983   -0.7634103 
C     0.4529655    0.6215834    0.4007202 
O    -1.6084520    3.5357243   -0.2064882 
H    -1.1688578    4.3634961    0.1804527 
H     0.6071274   -0.1097075    1.1914733 
H     1.4729750    1.4143485   -2.6833455 
H    -0.1716275    3.1792934   -2.3330241 
H    -1.0333911    1.6694853    1.4993847 
C     2.1684090   -0.5682326   -0.9740109 
C     1.5330317   -1.9032238   -1.4378041 
H     2.7279720   -0.7399233   -0.0257421 
H     2.9337524   -0.2524202   -1.7169501 
C     0.6379847   -2.5167467   -0.3701051 
O     1.2088851   -3.1957791    0.6977186 
O    -0.7399896   -2.3469719   -0.3973997 
H    -1.1345292   -3.0722382   -0.9775090 
N     0.8415179   -1.7493633   -2.7306704 
H     2.3592283   -2.6365896   -1.5765658 
H     0.0226564   -1.1035679   -2.6234247 
H     1.4912453   -1.3170758   -3.4284028 
