24
Energy =
C    -0.7610342    1.9384812   -1.4662908 
C    -1.0790907    2.1730307   -0.1722001 
C    -0.3592245    1.5962214    0.8173146 
C     0.2856316    1.1313614   -1.7758959 
C     1.0217126    0.5549890   -0.7849519 
C     0.6889208    0.7880821    0.5155915 
O    -2.1543765    2.9976736    0.1414981 
H    -1.8549069    3.9634654    0.2201961 
H     1.2547432    0.3229382    1.3193562 
H     0.5284907    0.9471965   -2.8197752 
H    -1.3556265    2.3971207   -2.2491348 
H    -0.6334999    1.7817371    1.8506196 
C     2.1752184   -0.3614651   -1.1294904 
C     1.6980474   -1.7855711   -1.4830222 
H     2.8997523   -0.4112616   -0.2854129 
H     2.7341521    0.0746035   -1.9895237 
C     2.8390127   -2.5830902   -2.1088503 
O     2.8651628   -2.7562518   -3.4865654 
O     3.8812768   -3.1046480   -1.3436100 
H     3.7442151   -2.9131147   -0.3613961 
N     1.1663077   -2.4423082   -0.2736245 
H     0.9031773   -1.7268861   -2.2646370 
H     0.2506325   -2.0011346   -0.0202448 
H     0.9383785   -3.4423142   -0.4951057 
