24
Energy =
C     0.9466705    2.4267466    0.0341485 
C    -0.0997186    2.2306571    0.8799983 
C    -0.5506030    0.9762182    1.1057179 
C     1.5381119    1.3688084   -0.5761905 
C     1.0901778    0.1038560   -0.3436799 
C     0.0352810   -0.0854764    0.4964934 
O    -0.7295915    3.2970433    1.5288705 
H    -0.3485008    4.2066455    1.2904316 
H    -0.3466412   -1.0856877    0.6835656 
H     2.3659757    1.5451114   -1.2601398 
H     1.3104665    3.4300562   -0.1608238 
H    -1.3901633    0.8358931    1.7778402 
C     1.7310957   -1.0776353   -1.0413198 
C     1.0097258   -1.4365227   -2.3516292 
H     1.7209662   -1.9611066   -0.3653969 
H     2.8043064   -0.8719596   -1.2552816 
C     1.1473688   -0.3299798   -3.3940682 
O     0.0486574    0.0493700   -4.1499922 
O     2.3753883    0.2731479   -3.6391763 
H     2.9280750   -0.3388862   -4.2198256 
N     1.5365452   -2.7383878   -2.8137461 
H    -0.0839801   -1.5239731   -2.1432699 
H     0.7442119   -3.4171212   -2.9124612 
H     1.9685707   -2.6670381   -3.7659220 
