24
Energy =
C     0.1011496    2.3728973   -1.5981943 
C    -0.6491983    2.5540328   -0.4868563 
C    -0.5138474    1.7147822    0.5655244 
C     0.9860346    1.3455254   -1.6641078 
C     1.1282913    0.4966195   -0.6080673 
C     0.3692557    0.6855620    0.5076708 
O    -1.5553414    3.6077122   -0.4232580 
H    -2.4597544    3.3265793   -0.7854072 
H     0.4632039    0.0144630    1.3585810 
H     1.5813971    1.2110822   -2.5641190 
H    -0.0108962    3.0600344   -2.4300194 
H    -1.1155321    1.8757034    1.4540530 
C     2.1041919   -0.6567744   -0.6857320 
C     1.5178614   -1.8669524   -1.4434991 
H     2.4112905   -0.9845887    0.3341004 
H     3.0380857   -0.3100629   -1.1842853 
C     2.6128375   -2.8690388   -1.7819793 
O     3.7151578   -3.0296269   -0.9525384 
O     2.5146428   -3.6460977   -2.9280342 
H     1.8422757   -4.3818394   -2.7724525 
N     0.4521761   -2.4816643   -0.6301445 
H     1.1084504   -1.5284248   -2.4244071 
H    -0.3778017   -1.8437381   -0.6150369 
H     0.1192395   -3.3610549   -1.0917708 
