24
Energy =
C     0.0511620    1.7753682    0.9674122 
C     0.3049857    2.7498745    0.0540244 
C     0.9987511    2.4505746   -1.0673235 
C     0.4914805    0.5093490    0.7545996 
C     1.1893404    0.2057127   -0.3753720 
C     1.4416056    1.1863899   -1.2857942 
O    -0.1331380    4.0643217    0.2428475 
H    -0.6500073    4.2091090    1.1035190 
H     1.9990120    0.9672535   -2.1928263 
H     0.2803843   -0.2571666    1.4957595 
H    -0.5042781    2.0065515    1.8699845 
H     1.1942458    3.2380385   -1.7873296 
C     1.6798305   -1.2052398   -0.6245615 
C     0.8459862   -1.9329603   -1.7096918 
H     1.6684500   -1.8087392    0.3122407 
H     2.7478897   -1.1531512   -0.9351605 
C     1.5635873   -3.1938245   -2.1696526 
O     1.6002461   -4.3178673   -1.3561603 
O     2.2613116   -3.2045711   -3.3695834 
H     3.1250458   -2.6948889   -3.2598619 
N    -0.5391677   -2.1977290   -1.2445413 
H     0.7881990   -1.2980148   -2.6238058 
H    -0.7358875   -3.2284560   -1.1946534 
H    -0.7161260   -1.8335336   -0.2808411 
