24
Energy =
C    -0.5830827    0.7427538    1.0885301 
C    -0.1447696    2.0282409    1.0247874 
C     0.9183389    2.3335146    0.2470749 
C     0.0425968   -0.2286076    0.3760321 
C     1.1138785    0.0771878   -0.4074262 
C     1.5487726    1.3666538   -0.4658946 
O    -0.7657897    3.0522168    1.7474447 
H    -1.5599414    2.7550369    2.3032048 
H     2.4002524    1.6358049   -1.0870495 
H    -0.3176415   -1.2526583    0.4382890 
H    -1.4344461    0.4919861    1.7107893 
H     1.2593704    3.3626445    0.1988747 
C     1.8057175   -1.0110146   -1.2034060 
C     1.0035770   -1.4334999   -2.4565620 
H     1.9491870   -1.8961368   -0.5439610 
H     2.8316277   -0.7019099   -1.5101442 
C     1.0352318   -0.3909767   -3.5836582 
O     1.7371073    0.8015579   -3.4322718 
O     0.3130869   -0.5834036   -4.7618868 
H    -0.0130207   -1.5356194   -4.8352485 
N     1.5167322   -2.7424864   -2.8958372 
H    -0.0674714   -1.5398114   -2.1743776 
H     0.7407306   -3.4461106   -2.9389558 
H     1.9280025   -2.6765944   -3.8531225 
