24
Energy =
C    -0.2671988    2.3766071   -1.4919802 
C    -0.8646413    2.4092114   -0.2796558 
C    -0.4865695    1.5235463    0.6799303 
C     0.7036421    1.4674047   -1.7556488 
C     1.0893890    0.5783842   -0.7979568 
C     0.4871858    0.6136051    0.4234037 
O    -1.8615430    3.3618954   -0.0470563 
H    -2.2791052    3.3097462    0.8759034 
H     0.7729023   -0.0927056    1.1998507 
H     1.1655912    1.4553414   -2.7390647 
H    -0.5782968    3.0856344   -2.2510552 
H    -0.9651585    1.5386352    1.6529704 
C     2.1642281   -0.4496015   -1.0932031 
C     1.5973767   -1.8213046   -1.5390344 
H     2.7999118   -0.5871908   -0.1896038 
H     2.8504732   -0.0653190   -1.8805086 
C     0.7783317   -2.4989377   -0.4344466 
O    -0.6001357   -2.3215326   -0.3741393 
O     1.4016487   -3.2150122    0.5901847 
H     2.3995834   -3.2803212    0.4560315 
N     0.8470010   -1.6995839   -2.8015961 
H     2.4627214   -2.4922345   -1.7356033 
H    -0.0328438   -1.1494287   -2.6508808 
H     1.4204383   -1.1942679   -3.5167517 
