24
Energy =
C    -0.3763749    2.0989603   -0.6947030 
C     0.3826955    2.7940986    0.1841180 
C     1.6164471    2.3433787    0.5193513 
C     0.1017819    0.9481967   -1.2265145 
C     1.3257282    0.4745409   -0.8875574 
C     2.0925407    1.1879367   -0.0173163 
O    -0.0986296    3.9769227    0.7357794 
H    -0.6113352    3.7915638    1.5908439 
H     3.0888527    0.8462858    0.2508866 
H    -0.4749577    0.2565858   -1.9883839 
H    -1.3574015    2.4700818   -0.9699285 
H     2.2211596    2.9194319    1.2120799 
C     1.8471681   -0.7960540   -1.5488769 
C     0.7677902   -1.9137048   -1.7109001 
H     2.6925905   -1.1936041   -0.9460569 
H     2.2589501   -0.5340151   -2.5489993 
C    -0.3082908   -1.5717137   -2.7631266 
O    -1.0252398   -0.3772161   -2.6995591 
O    -0.6018787   -2.4492889   -3.7923921 
H    -1.3518020   -2.0583562   -4.3473978 
N     1.4259134   -3.2006495   -2.0038892 
H     0.2067330   -2.0208220   -0.7537921 
H     1.8089694   -3.1909988   -2.9808523 
H     2.2068015   -3.3953494   -1.3359564 
