24
Energy =
C    -0.1517736    2.2862384   -1.3599279 
C    -0.6255200    2.4917023   -0.1095734 
C    -0.2371492    1.6829175    0.9027630 
C     0.7200853    1.2743652   -1.6011859 
C     1.1192814    0.4571751   -0.5863980 
C     0.6343090    0.6684628    0.6695918 
O    -1.5182275    3.5305775    0.1344004 
H    -1.0212369    4.3841869    0.3638512 
H     0.9368817    0.0286450    1.4943831 
H     1.0942240    1.1216661   -2.6105295 
H    -0.4805491    2.9357539   -2.1638552 
H    -0.6326369    1.8525923    1.8987595 
C     2.0871263   -0.6747572   -0.8593570 
C     1.4208167   -1.8463887   -1.6236242 
H     2.5381120   -1.0582105    0.0841654 
H     2.9357612   -0.2714370   -1.4584721 
C     2.4815419   -2.7956988   -2.1561625 
O     3.1332953   -3.6805680   -1.3038446 
O     2.8512141   -2.7394841   -3.4930126 
H     3.5714715   -3.4302999   -3.6628386 
N     0.3973986   -2.5296686   -0.7923884 
H     0.9215164   -1.4509237   -2.5382043 
H     0.6428138   -3.5378692   -0.6341383 
H     0.3141800   -2.1102692    0.1617565 
