24
Energy =
C     0.1935071    1.2587688    1.4290262 
C     0.2227532    2.4856689    0.8597520 
C     0.7560166    2.6473512   -0.3729590 
C     0.7101635    0.1893888    0.7711916 
C     1.2633506    0.3464610   -0.4633225 
C     1.2736255    1.5823743   -1.0372164 
O    -0.3065873    3.5794452    1.5371015 
H     0.3987414    4.0146274    2.1211980 
H     1.6903327    1.7257873   -2.0312038 
H     0.6661900   -0.7956386    1.2285803 
H    -0.2565227    1.1412187    2.4087878 
H     0.7577172    3.6335788   -0.8253413 
C     1.8177918   -0.8482423   -1.2092425 
C     0.7020332   -1.6100676   -1.9552312 
H     2.3377591   -1.5241728   -0.4955292 
H     2.5935655   -0.5073003   -1.9330285 
C     1.2591729   -2.5207143   -3.0502272 
O     0.8229317   -2.3499846   -4.3571232 
O     2.1902872   -3.5243403   -2.7801303 
H     2.4487135   -3.5515147   -1.8068434 
N    -0.1322755   -2.3374614   -0.9789234 
H     0.0674913   -0.8624834   -2.4906692 
H    -0.9950953   -2.6863088   -1.4626677 
H     0.3708535   -3.1850225   -0.6241747 
