24
Energy =
C     0.6499755    1.5202206    1.1323110 
C    -0.3850754    2.2209058    0.6139464 
C    -0.6268443    2.1870555   -0.7163859 
C     1.4448814    0.7764667    0.3211826 
C     1.2090930    0.7386683   -1.0199752 
C     0.1636196    1.4466457   -1.5339761 
O    -1.1973112    2.9819373    1.4484145 
H    -1.9677351    2.4252524    1.8026086 
H    -0.0504601    1.4191656   -2.6004264 
H     2.2682330    0.2123135    0.7522705 
H     0.8347932    1.5618647    2.2004011 
H    -1.4583117    2.7550044   -1.1203558 
C     2.0813147   -0.1105642   -1.9204415 
C     1.6431559   -1.5877323   -1.9226080 
H     3.1378691   -0.0376223   -1.5820838 
H     2.0699115    0.2733993   -2.9664406 
C     0.2439767   -1.7676843   -2.5001327 
O    -0.1983026   -0.9972544   -3.5722806 
O    -0.5938028   -2.7445994   -1.9789757 
H    -1.4626303   -2.7393687   -2.4976946 
N     2.6407661   -2.3666321   -2.6753747 
H     1.5992376   -1.9589683   -0.8715467 
H     3.5190086   -2.4328802   -2.1097514 
H     2.2946498   -3.3521363   -2.7814325 
