24
Energy =
C    -0.7483399    0.3393643    1.0404941 
C    -1.0353061    1.6076452    0.6659605 
C    -0.2692316    2.2300927   -0.2590146 
C     0.3037507   -0.3145220    0.4854030 
C     1.0804715    0.3059638   -0.4460939 
C     0.7842645    1.5831663   -0.8183500 
O    -2.1146520    2.2742066    1.2372847 
H    -2.9639192    2.0963899    0.7119110 
H     1.3843269    2.0926790   -1.5693266 
H     0.5189771   -1.3352180    0.7909635 
H    -1.3673626   -0.1445742    1.7882206 
H    -0.5065841    3.2481596   -0.5492945 
C     2.2382893   -0.4314594   -1.0844006 
C     1.7769774   -1.3414420   -2.2392556 
H     2.7554743   -1.0422301   -0.3127131 
H     3.0020437    0.2840328   -1.4676103 
C     1.1600021   -0.5436953   -3.3818509 
O     1.7245658    0.6526431   -3.8146840 
O     0.0314681   -1.0313865   -4.0277135 
H    -0.2216134   -0.3888141   -4.7675677 
N     2.9323822   -2.1359873   -2.6926884 
H     0.9727475   -2.0232167   -1.8739014 
H     3.1632172   -2.8530592   -1.9658384 
H     2.6657468   -2.6730720   -3.5542435 
