24
Energy =
C    -0.7348178    1.7782718    0.4638653 
C    -0.3059165    2.8473097   -0.2430780 
C     0.8230446    2.7467184   -0.9927568 
C    -0.0439433    0.6096276    0.4320293 
C     1.0842157    0.4979134   -0.3229539 
C     1.5155945    1.5798658   -1.0316918 
O    -1.0407299    4.0353572   -0.1791613 
H    -0.6651041    4.7873316   -0.7458197 
H     2.4173780    1.5208195   -1.6354158 
H    -0.4147389   -0.2407216    1.0006845 
H    -1.6425148    1.8690370    1.0519684 
H     1.1737962    3.6006342   -1.5615096 
C     1.8724684   -0.8017053   -0.3561436 
C     1.2280747   -1.9376878   -1.2002219 
H     2.0211267   -1.1585958    0.6882232 
H     2.8959039   -0.6158990   -0.7505540 
C    -0.0049064   -2.5329191   -0.5356453 
O     0.1136850   -3.6919080    0.2186448 
O    -1.2377281   -1.8954503   -0.5878647 
H    -1.7311385   -2.2369248   -1.4008910 
N     0.9545491   -1.5245396   -2.5954407 
H     1.9616542   -2.7783255   -1.2101174 
H     1.2174648   -0.5304033   -2.7815831 
H     1.5144635   -2.1115085   -3.2574872 
