24
Energy =
C     0.4882233    2.1584142    0.6713436 
C    -0.3778306    2.6769647   -0.2297060 
C    -0.4845308    2.1260735   -1.4605384 
C     1.2467356    1.0802791    0.3467134 
C     1.1434831    0.5191482   -0.8904343 
C     0.2701738    1.0479077   -1.7925817 
O    -1.1539810    3.7815945    0.1068786 
H    -2.0274584    3.4902348    0.5316663 
H     0.1730211    0.6137016   -2.7846253 
H     1.9341194    0.6711708    1.0825535 
H     0.5694301    2.6168995    1.6509083 
H    -1.1758861    2.5569496   -2.1770802 
C     1.9743298   -0.6913203   -1.2562919 
C     1.1621418   -2.0100745   -1.1742367 
H     2.8762472   -0.7640448   -0.6082819 
H     2.3651244   -0.5481791   -2.2903706 
C     1.9336830   -3.1981048   -1.7608267 
O     2.9391036   -2.9783491   -2.6951648 
O     1.5924882   -4.5134944   -1.4545826 
H     0.8538483   -4.5378910   -0.7667089 
N     0.7434000   -2.2646116    0.2194097 
H     0.2579945   -1.9210408   -1.8205046 
H     1.5655246   -2.1974663    0.8677594 
H     0.0458891   -1.5425259    0.5207399 
