24
Energy =
C    -0.3134790    1.3090898    1.0475904 
C     0.0010364    2.5276825    0.5347678 
C     0.8950432    2.6166941   -0.4753098 
C     0.2667987    0.1883642    0.5483707 
C     1.1615531    0.2735021   -0.4759492 
C     1.4762429    1.4993109   -0.9810837 
O    -0.5757877    3.7024382    1.0278233 
H    -1.2504209    3.5515470    1.7700703 
H     2.1935092    1.5970413   -1.7917726 
H     0.0020393   -0.7784440    0.9698917 
H    -1.0313390    1.2276195    1.8565468 
H     1.1381158    3.5959538   -0.8734558 
C     1.8125546   -0.9782813   -1.0382496 
C     0.8880359   -1.8092497   -1.9675707 
H     2.1526037   -1.6201600   -0.1936112 
H     2.7352477   -0.7154966   -1.6017091 
C    -0.2763889   -2.4323059   -1.2098537 
O    -1.5070554   -1.7913329   -1.1150639 
O    -0.0837946   -3.6201851   -0.5193479 
H    -0.9596355   -3.8927304   -0.0906887 
N     0.4886017   -1.0524807   -3.1802642 
H     1.4747416   -2.6938199   -2.3072056 
H    -0.5560673   -0.9938850   -3.2610978 
H     0.8188482   -0.0617548   -3.1583406 
