24
Energy =
C    -0.5905133    1.8809278   -1.9187705 
C    -0.9610358    2.3886104   -0.7206444 
C    -0.3426074    1.9761497    0.4096569 
C     0.4076688    0.9640560   -1.9918307 
C     1.0407513    0.5503735   -0.8590249 
C     0.6563419    1.0592882    0.3449636 
O    -1.9852811    3.3276117   -0.6492072 
H    -1.6160947    4.2677343   -0.7393592 
H     1.1393656    0.7337464    1.2627986 
H     0.6928508    0.5618103   -2.9609114 
H    -1.1040673    2.2108385   -2.8152581 
H    -0.6581436    2.3819252    1.3651122 
C     2.1402937   -0.4848660   -0.9390546 
C     1.5882384   -1.9174772   -1.1390040 
H     2.7822576   -0.4579306   -0.0287489 
H     2.8131749   -0.2240447   -1.7872793 
C     2.7178040   -2.8938204   -1.4208811 
O     2.7333774   -3.6275713   -2.6022235 
O     3.7703371   -3.0283765   -0.5206469 
H     4.4093837   -3.7309363   -0.8697955 
N     0.8041152   -2.3454897    0.0326629 
H     0.9337416   -1.9408432   -2.0406174 
H     1.3858349   -2.2672957    0.9010880 
H    -0.0366075   -1.7323610    0.1460843 
