24
Energy =
C    -0.3314602    0.7891619    1.3644538 
C    -0.4540608    2.0697707    0.9232121 
C     0.2368289    2.4693814   -0.1686879 
C     0.4821250   -0.0813233    0.7146379 
C     1.1861259    0.3235507   -0.3777668 
C     1.0534283    1.6038962   -0.8205243 
O    -1.2814305    2.9927219    1.5719891 
H    -1.7770088    2.6133293    2.3713412 
H     1.5920861    1.9403861   -1.7034033 
H     0.5648814   -1.1038252    1.0735934 
H    -0.8856896    0.4579529    2.2358398 
H     0.1232407    3.4900234   -0.5167502 
C     2.0729959   -0.6528322   -1.1186423 
C     1.2832747   -1.4600102   -2.1713824 
H     2.5462239   -1.3472668   -0.3888599 
H     2.9162315   -0.1155566   -1.6090058 
C     0.6746980   -0.5534583   -3.2448259 
O    -0.7003990   -0.3533609   -3.2665125 
O     1.4654447    0.1012128   -4.1890188 
H     2.4332188   -0.1716557   -4.0919744 
N     2.1840511   -2.4691672   -2.7562286 
H     0.4239607   -1.9687451   -1.6723636 
H     2.4755035   -3.1476606   -2.0126658 
H     1.6579442   -3.0338125   -3.4666091 
