24
Energy =
C     0.1713472    2.4496200   -0.3111683 
C    -0.8490943    2.0008249    0.4546187 
C    -0.8999333    0.6880916    0.8038592 
C     1.1437046    1.5999025   -0.7281858 
C     1.1011016    0.2851323   -0.3774106 
C     0.0691451   -0.1668130    0.3882375 
O    -1.8303076    2.9072293    0.8683472 
H    -2.5702823    2.5004510    1.4296316 
H     0.0147826   -1.2151819    0.6707897 
H     1.9512313    1.9818372   -1.3499801 
H     0.1989952    3.4980360   -0.5904830 
H    -1.7174433    0.3221367    1.4147834 
C     2.1721328   -0.6730437   -0.8558505 
C     1.7166480   -1.4785296   -2.0950152 
H     2.4340450   -1.3692447   -0.0292821 
H     3.1144491   -0.1273608   -1.0973321 
C     1.5248384   -0.5892848   -3.3254462 
O     2.3247951    0.5357616   -3.5099653 
O     0.5628647   -0.8887355   -4.2926151 
H     0.1137172   -1.7769046   -4.1209162 
N     2.7017616   -2.5324282   -2.3678834 
H     0.7349623   -1.9535494   -1.8724544 
H     2.7280020   -3.2040449   -1.5647481 
H     2.3714812   -3.0881694   -3.1907586 
