24
Energy =
C     0.8086587    2.5420948   -0.1756547 
C    -0.3423652    2.3777821    0.5161999 
C    -0.7997523    1.1331292    0.7838653 
C     1.5051949    1.4601964   -0.6071986 
C     1.0527832    0.2031420   -0.3395032 
C    -0.1090861    0.0461628    0.3548151 
O    -1.0539654    3.4882745    0.9579485 
H    -1.7364135    3.7736287    0.2637147 
H    -0.4918326   -0.9481875    0.5684458 
H     2.4200824    1.6086640   -1.1774597 
H     1.1641760    3.5455574   -0.3841849 
H    -1.7220427    1.0161513    1.3430794 
C     1.8093729   -1.0060727   -0.8475048 
C     1.2761587   -1.4836837   -2.2195663 
H     1.7265488   -1.8313688   -0.1065174 
H     2.8950944   -0.7692072   -0.9379230 
C     1.4453452   -0.4132900   -3.2856039 
O     0.3401855    0.0620903   -3.9789706 
O     2.6999152    0.1086395   -3.5726815 
H     3.1366457   -0.5004166   -4.2491415 
N     1.9472173   -2.7356733   -2.6331922 
H     0.1763918   -1.6547201   -2.1345552 
H     2.6407530   -3.0798732   -1.9275132 
H     1.2359842   -3.4952059   -2.7560930 
