24
Energy =
C    -0.2404147    1.7766819    0.8567745 
C    -0.3505231    2.6935694   -0.1321251 
C     0.2920615    2.5022031   -1.3070691 
C     0.5080280    0.6595121    0.6713974 
C     1.1568001    0.4594883   -0.5098626 
C     1.0423047    1.3876280   -1.5002555 
O    -1.1189341    3.8372696    0.0615825 
H    -2.0821309    3.6722324   -0.2091580 
H     1.5521016    1.2457749   -2.4502354 
H     0.5828585   -0.0696288    1.4740772 
H    -0.7533827    1.9482722    1.7967961 
H     0.2030057    3.2493736   -2.0887032 
C     1.9821446   -0.7884169   -0.7307511 
C     1.2401102   -1.8411207   -1.5900088 
H     2.2824141   -1.2461731    0.2399149 
H     2.9343082   -0.5014753   -1.2321905 
C     2.1738200   -2.9750886   -1.9768268 
O     2.3799388   -3.2878346   -3.3161697 
O     2.8621683   -3.6838288   -0.9970847 
H     3.4146006   -4.4043043   -1.4438405 
N     0.0549108   -2.3549002   -0.8808605 
H     0.9164587   -1.3772281   -2.5501842 
H     0.3358660   -2.7429419    0.0515605 
H    -0.6313554   -1.5816683   -0.7190671 
