24
Energy =
C     1.6843435    2.4180715   -0.6165935 
C     0.7820264    2.6597396    0.3621298 
C     0.1042823    1.6342092    0.9268072 
C     1.9084882    1.1478430   -1.0388698 
C     1.2318051    0.1093456   -0.4737374 
C     0.3228278    0.3611580    0.5094916 
O     0.5541893    3.9625566    0.7929493 
H    -0.1965748    4.3880246    0.2593748 
H    -0.2354484   -0.4537800    0.9622647 
H     2.6231702    0.9701926   -1.8395847 
H     2.2203829    3.2498135   -1.0609583 
H    -0.6140085    1.8428464    1.7126167 
C     1.4533373   -1.3048646   -0.9668956 
C     0.3981992   -1.7216192   -2.0191591 
H     1.4165520   -2.0062452   -0.1042758 
H     2.4703956   -1.4047031   -1.4113841 
C     0.4401820   -0.8075093   -3.2377301 
O    -0.5461147    0.1533427   -3.4240349 
O     1.4852515   -0.8932920   -4.1491043 
H     1.3363318   -0.2035941   -4.8746438 
N     0.5485878   -3.1564842   -2.3688407 
H    -0.6185673   -1.5803260   -1.5862802 
H     0.7716225   -3.2695056   -3.3893851 
H     1.3487431   -3.6075286   -1.8670286 
