24
Energy =
C     0.0312261    1.8264778    0.8069743 
C     0.2177635    2.8423850   -0.0671452 
C     0.9194177    2.6360180   -1.2050580 
C     0.5416852    0.5965004    0.5428755 
C     1.2521227    0.3823119   -0.5991977 
C     1.4335189    1.4093199   -1.4760211 
O    -0.3068959    4.1011918    0.2069224 
H    -1.2549768    4.1803223   -0.1444369 
H     1.9865044    1.2545996   -2.4011592 
H     0.3810357   -0.2117897    1.2520240 
H    -0.5263700    2.0099131    1.7191143 
H     1.0663041    3.4603065   -1.8955816 
C     1.8005080   -0.9931687   -0.9096912 
C     0.7411618   -1.9027303   -1.5774523 
H     2.1571585   -1.4661157    0.0326526 
H     2.6910416   -0.9142090   -1.5756538 
C     0.2411072   -1.3069771   -2.8891008 
O     1.0925421   -1.1990481   -3.9805002 
O    -1.0484652   -0.8028743   -2.9850640 
H    -1.0794249    0.1038227   -2.5436161 
N     1.2669644   -3.2819482   -1.7360632 
H    -0.1592240   -1.9538146   -0.9224581 
H     1.3212086   -3.5533100   -2.7497145 
H     2.2423850   -3.3874759   -1.3697449 
