24
Energy =
C     1.5032546    1.5909068    0.9131076 
C     2.0551485    2.4357951    0.0116366 
C     2.2399913    2.0346600   -1.2669905 
C     1.1436768    0.3359299    0.5410623 
C     1.3387457   -0.0799412   -0.7416514 
C     1.8842769    0.7811523   -1.6461968 
O     2.4240196    3.7207104    0.3976178 
H     3.3768762    3.7320729    0.7440873 
H     2.0318513    0.4750904   -2.6795280 
H     0.6961660   -0.3302055    1.2743130 
H     1.3464986    1.9315788    1.9308907 
H     2.6679272    2.7260345   -1.9852197 
C     0.9207666   -1.4736453   -1.1603464 
C    -0.5834400   -1.5531174   -1.4874427 
H     1.1634101   -2.1882861   -0.3441246 
H     1.5037162   -1.8149946   -2.0466897 
C    -0.9460349   -0.7419143   -2.7278276 
O    -2.2083681   -0.1677887   -2.8256412 
O    -0.0588471   -0.6101250   -3.7922790 
H    -0.5113294   -0.0846212   -4.5291289 
N    -0.9505073   -2.9717198   -1.6439775 
H    -1.1655226   -1.1111694   -0.6447215 
H    -0.9353366   -3.4350256   -0.7054555 
H    -1.9423546   -3.0376566   -1.9814303 
