24
Energy =
C     0.1481172    2.4670939   -0.7506851 
C    -0.1642687    2.4227533    0.5650352 
C     0.1944770    1.3522406    1.3103357 
C     0.8157184    1.4360034   -1.3284467 
C     1.1815625    0.3550984   -0.5842593 
C     0.8628866    0.3173869    0.7401721 
O    -0.8483701    3.4812459    1.1539392 
H    -1.8508665    3.3428409    1.0874526 
H     1.1381063   -0.5399338    1.3500494 
H     1.0562830    1.4825598   -2.3882534 
H    -0.1385995    3.3357168   -1.3337799 
H    -0.0560101    1.3328035    2.3659638 
C     1.9118045   -0.8007807   -1.2324421 
C     0.9498329   -1.7439826   -1.9864900 
H     2.4791969   -1.3836183   -0.4722994 
H     2.6722747   -0.3917964   -1.9379078 
C     1.7453905   -2.7002171   -2.8736052 
O     2.2891625   -2.2113995   -4.0530539 
O     2.0385366   -4.0114328   -2.5057014 
H     1.5014562   -4.2701187   -1.6925729 
N     0.0967433   -2.4521541   -1.0193583 
H     0.3096071   -1.1514726   -2.6805481 
H    -0.5900862   -1.7731291   -0.6079074 
H    -0.4835884   -3.1423380   -1.5472946 
