24
Energy =
C     1.3726907    2.2406863    0.3677201 
C     0.7808452    2.9726506   -0.6043093 
C     0.5054545    2.4094297   -1.8030906 
C     1.6870288    0.9389973    0.1456288 
C     1.4168811    0.3659997   -1.0601668 
C     0.8165587    1.1082450   -2.0326832 
O     0.4593419    4.3064902   -0.3734584 
H    -0.4730012    4.3875864    0.0169094 
H     0.5831277    0.6666766   -2.9985109 
H     2.1496575    0.3572833    0.9397843 
H     1.5913598    2.7062682    1.3225358 
H     0.0358417    3.0088607   -2.5758881 
C     1.7456151   -1.0904451   -1.3045801 
C     0.5687993   -2.0048615   -0.9256233 
H     2.6406156   -1.3892356   -0.7122862 
H     2.0175249   -1.2361324   -2.3745551 
C     0.7947767   -3.4061882   -1.4713678 
O     1.7620510   -4.2380436   -0.9186072 
O     0.0687273   -3.8441286   -2.5705456 
H     0.3563069   -4.7879594   -2.7978613 
N     0.4038781   -1.9728559    0.5444109 
H    -0.3573707   -1.6383674   -1.4304359 
H    -0.5186495   -1.5387324    0.7820770 
H     0.3963717   -2.9391359    0.9544628 
