24
Energy =
C     1.0953107    2.6972622   -1.3921262 
C    -0.1773188    2.9223757   -0.9931723 
C    -0.8217082    2.0054189   -0.2374101 
C     1.7265486    1.5468753   -1.0438904 
C     1.0816079    0.6105634   -0.2912308 
C    -0.1969160    0.8531902    0.1162923 
O    -0.8210394    4.1019901   -1.3512307 
H    -1.2925229    3.9930944   -2.2427409 
H    -0.7299430    0.1217748    0.7186823 
H     2.7495524    1.3840305   -1.3720753 
H     1.6027610    3.4476392   -1.9888109 
H    -1.8408574    2.2015613    0.0794303 
C     1.7848296   -0.6774388    0.1011705 
C     1.3607710   -1.9117992   -0.7393746 
H     1.5874269   -0.8861505    1.1771992 
H     2.8875637   -0.5552429    0.0204733 
C    -0.1058356   -2.2616761   -0.5504965 
O    -1.0942628   -1.7242385   -1.3696091 
O    -0.4861584   -3.0416536    0.5351152 
H    -1.4857229   -3.1951301    0.4927593 
N     1.7111764   -1.7610970   -2.1687205 
H     1.9052987   -2.7908828   -0.3207994 
H     2.1416616   -0.8343517   -2.3855754 
H     2.4077069   -2.4921572   -2.4451181 
