24
Energy =
C    -0.2159439    2.4784081   -1.4302629 
C    -0.8864032    2.4679003   -0.2479449 
C    -0.5734797    1.5452415    0.6896659 
C     0.7609336    1.5680373   -1.6680344 
C     1.0778311    0.6354715   -0.7256201 
C     0.4037038    0.6325998    0.4579245 
O    -1.8981419    3.3925948    0.0292544 
H    -2.0778999    4.0490030   -0.7227572 
H     0.6404708   -0.0959132    1.2290139 
H     1.2844941    1.5890555   -2.6201773 
H    -0.4592659    3.2140726   -2.1888841 
H    -1.1162918    1.5468006    1.6290394 
C     2.1642273   -0.3889081   -0.9963086 
C     1.6305939   -1.7298229   -1.5678340 
H     2.7307812   -0.5833754   -0.0567060 
H     2.9107060    0.0336692   -1.7046406 
C     0.7804851   -2.5152312   -0.5588907 
O     1.1716352   -2.5492012    0.7746657 
O    -0.3171821   -3.2850345   -0.9407932 
H    -0.4366476   -3.2736041   -1.9422108 
N     0.9540610   -1.5104340   -2.8632747 
H     2.5107250   -2.3899005   -1.7442693 
H     0.1084155   -0.9033109   -2.7373722 
H     1.5991862   -1.0140979   -3.5239268 
