24
Energy =
C    -0.0101100    1.7466552    0.8869999 
C     0.2536227    2.7933949    0.0598038 
C     0.9804022    2.5915769   -1.0627063 
C     0.4555371    0.5073453    0.5888049 
C     1.1945534    0.3045492   -0.5369393 
C     1.4497579    1.3549867   -1.3651288 
O    -0.2096663    4.0831254    0.3388439 
H    -0.7552978    4.1519061    1.1910658 
H     2.0239570    1.2123589   -2.2782328 
H     0.2313412   -0.3208919    1.2563276 
H    -0.5959909    1.8980469    1.7872579 
H     1.1779979    3.4326421   -1.7185675 
C     1.6945954   -1.0827275   -0.8802906 
C     0.6195817   -1.9253077   -1.5939258 
H     2.0148067   -1.5997455    0.0505009 
H     2.6021497   -1.0301888   -1.5252877 
C     0.2338217   -1.3272839   -2.9402004 
O     1.2003230   -0.8336206   -3.8122777 
O    -1.1023075   -1.2882116   -3.3175090 
H    -1.1683932   -0.8795527   -4.2409387 
N     1.1284557   -3.3004157   -1.7377268 
H    -0.3138725   -1.9323523   -0.9828209 
H     1.1500833   -3.7600801   -0.7972982 
H     0.4544017   -3.8595185   -2.3157808 
