24
Energy =
C    -0.6437311    0.4190925    1.0964080 
C    -0.9509951    1.6695437    0.6803661 
C    -0.2449509    2.2420190   -0.3215743 
C     0.3795399   -0.2602767    0.5184390 
C     1.1041359    0.3148599   -0.4817097 
C     0.7803375    1.5698159   -0.9033632 
O    -1.9996410    2.3629367    1.2767614 
H    -1.6728699    2.8860061    2.0815929 
H     1.3334846    2.0401359   -1.7134731 
H     0.6110744   -1.2664792    0.8582808 
H    -1.2290133   -0.0334029    1.8895999 
H    -0.5108238    3.2383849   -0.6587830 
C     2.2320329   -0.4506113   -1.1404204 
C     1.7207399   -1.4027683   -2.2392738 
H     2.7798377   -1.0338188   -0.3684797 
H     2.9811529    0.2469854   -1.5809663 
C     1.0868135   -0.6468762   -3.4009145 
O     1.6482121    0.5296124   -3.8894552 
O    -0.0493330   -1.1596921   -4.0131513 
H    -0.3199292   -0.5412974   -4.7672608 
N     2.8474949   -2.2405159   -2.6873853 
H     0.9140618   -2.0508243   -1.8212699 
H     3.0844296   -2.9286475   -1.9349860 
H     2.5451062   -2.8112888   -3.5149328 
