24
Energy =
C     0.6869359    1.7840104    1.1877590 
C     0.4227388    2.7655133    0.2958794 
C     0.6576702    2.5529719   -1.0260469 
C     1.1830260    0.5911021    0.7717644 
C     1.4183810    0.3716149   -0.5514214 
C     1.1539885    1.3618274   -1.4480985 
O    -0.0873873    3.9806733    0.7637707 
H    -0.2630191    4.6662012    0.0375499 
H     1.3390233    1.2044940   -2.5078217 
H     1.3889924   -0.1825826    1.5066132 
H     0.4959548    1.9664121    2.2399642 
H     0.4487463    3.3360205   -1.7464569 
C     1.9676291   -0.9575567   -1.0265632 
C     0.8971886   -1.8187460   -1.7482368 
H     2.4021747   -1.5394387   -0.1819392 
H     2.8191103   -0.7597885   -1.7173603 
C     1.5281662   -3.0117256   -2.4749411 
O     2.8045031   -3.4452467   -2.1349079 
O     0.8253176   -3.7049215   -3.4586931 
H    -0.1117321   -3.3448427   -3.5717521 
N    -0.1857451   -2.2265841   -0.8195711 
H     0.4435863   -1.2008852   -2.5550270 
H    -0.2818580   -3.2707572   -0.7722052 
H    -0.0075421   -1.9176102    0.1640619 
