24
Energy =
C     0.2355894    0.7223707    1.5357749 
C     0.4734783    2.0097976    1.1959203 
C     1.0987802    2.2983306    0.0318922 
C     0.6185924   -0.2832272    0.7083258 
C     1.2482709   -0.0018623   -0.4672894 
C     1.4831284    1.2982450   -0.8013530 
O     0.0802178    3.0373774    2.0469302 
H    -0.8712082    3.3241000    1.8430178 
H     1.9706351    1.5443774   -1.7409622 
H     0.4119421   -1.3137752    0.9875668 
H    -0.2640256    0.5071476    2.4740270 
H     1.2852739    3.3348083   -0.2286932 
C     1.6588832   -1.1203197   -1.4061952 
C     0.5828195   -1.4252996   -2.4711523 
H     1.8764409   -2.0455857   -0.8263581 
H     2.6094782   -0.8495432   -1.9150161 
C    -0.7147072   -1.9285179   -1.8446734 
O    -1.9508980   -1.6043933   -2.3935738 
O    -0.6734429   -2.8210687   -0.7784309 
H    -1.6219497   -3.0965920   -0.5539768 
N     0.3919034   -0.2327011   -3.3189847 
H     0.9417481   -2.2733877   -3.0975966 
H     1.2246740   -0.1193322   -3.9421718 
H    -0.4299470   -0.3803550   -3.9544732 
