24
Energy =
C    -0.9706370    1.8888595   -1.1578370 
C    -1.3853344    1.7567802    0.1228346 
C    -0.6082858    1.1123346    1.0233043 
C     0.2251681    1.3732700   -1.5441522 
C     1.0145451    0.7242305   -0.6419621 
C     0.5863722    0.5908160    0.6441364 
O    -2.6091902    2.2885009    0.5146413 
H    -3.3529224    1.6124849    0.3771928 
H     1.1953455    0.0678622    1.3773494 
H     0.5414571    1.4657121   -2.5842326 
H    -1.6080300    2.4072263   -1.8669677 
H    -0.9511662    1.0169284    2.0483935 
C     2.3355158    0.1213130   -1.0725390 
C     2.1615079   -1.2973670   -1.6533388 
H     3.0326660    0.0860066   -0.2066146 
H     2.8306209    0.7671913   -1.8336767 
C     1.3250764   -1.2828017   -2.9252897 
O     0.3524215   -2.2495750   -3.1282838 
O     1.5218640   -0.3088472   -3.8984108 
H     2.3018277   -0.6018716   -4.4721569 
N     3.4964461   -1.8687134   -1.8992255 
H     1.6059987   -1.9313872   -0.9219436 
H     3.9786947   -2.0223051   -0.9823066 
H     3.3858765   -2.8211420   -2.3243958 
