24
Energy =
C    -0.9211297    1.6948865   -1.7003113 
C    -0.9709739    2.3329980   -0.5081923 
C    -0.0710040    2.0352936    0.4569562 
C     0.0373834    0.7629960   -1.9357976 
C     0.9567652    0.4693244   -0.9740831 
C     0.8910146    1.1053757    0.2284434 
O    -1.9550403    3.2877360   -0.2707356 
H    -1.6413279    4.2059948   -0.5648865 
H     1.6002995    0.8650258    1.0164414 
H     0.0605162    0.2520078   -2.8950576 
H    -1.6594764    1.9317521   -2.4584273 
H    -0.1322359    2.5405363    1.4149550 
C     2.0118581   -0.5850403   -1.2245397 
C     1.5108297   -1.9887113   -0.8316332 
H     2.9403860   -0.3458875   -0.6586444 
H     2.2989047   -0.5735072   -2.3010283 
C     2.4449075   -3.0634338   -1.3599522 
O     3.6344120   -3.3587991   -0.7041600 
O     2.1348259   -3.7257188   -2.5389774 
H     2.8713130   -4.3898858   -2.7437308 
N     1.3427122   -2.0575338    0.6326684 
H     0.5296350   -2.1764499   -1.3289187 
H     0.9659339   -3.0006905    0.8917948 
H     2.2828699   -1.9883383    1.0923354 
