24
Energy =
C     1.0355208    2.3424124    0.8823515 
C    -0.3129138    2.2932803    0.8190110 
C    -0.9187913    1.3826355    0.0264074 
C     1.7843044    1.4704565    0.1613214 
C     1.1891182    0.5343617   -0.6331770 
C    -0.1784851    0.5053874   -0.6986522 
O    -1.0778101    3.1863355    1.5625751 
H    -1.2822135    2.8076318    2.4806090 
H    -0.7087828   -0.1998208   -1.3249816 
H     2.8684883    1.5319456    0.2209095 
H     1.5089574    3.0906440    1.5091128 
H    -2.0024369    1.3676746   -0.0296014 
C     2.0998281   -0.4035849   -1.4222552 
C     1.4340781   -1.5988859   -2.1622997 
H     2.8414767   -0.8141200   -0.7018249 
H     2.6701732    0.2015290   -2.1646088 
C     0.5816432   -1.1608250   -3.3458348 
O     0.7702732    0.0706802   -3.9592565 
O    -0.4129002   -1.9999283   -3.8244128 
H     0.0261978   -2.6960396   -4.4090461 
N     2.4589624   -2.5610510   -2.6227790 
H     0.7426522   -2.1086384   -1.4517233 
H     3.4161519   -2.3489647   -2.2547183 
H     2.2153910   -3.5246079   -2.2919384 
