24
Energy =
C     0.1258987    1.7394054    0.9967521 
C     0.1864324    2.7548168    0.1050935 
C     0.7326744    2.5516874   -1.1153637 
C     0.6244688    0.5179569    0.6751521 
C     1.1865291    0.3071702   -0.5486007 
C     1.2316731    1.3330838   -1.4446124 
O    -0.3203031    4.0064112    0.4406361 
H     0.3936912    4.5745970    0.8820784 
H     1.6563075    1.1801940   -2.4330487 
H     0.5602200   -0.2914192    1.3989727 
H    -0.3327847    1.9124223    1.9643816 
H     0.7591953    3.3687015   -1.8284159 
C     1.7346145   -1.0581836   -0.9200805 
C     0.7002105   -1.9373783   -1.6571861 
H     2.0893888   -1.5881948   -0.0075001 
H     2.6306769   -0.9341205   -1.5661676 
C    -0.4964435   -2.2877982   -0.7740628 
O    -0.3184523   -2.5293994    0.5850065 
O    -1.7509026   -2.5077525   -1.3302380 
H    -2.3951818   -2.7553867   -0.5902967 
N     0.3174829   -1.2711134   -2.9179569 
H     1.1763156   -2.9182411   -1.8853891 
H     1.0805313   -1.4039967   -3.6208727 
H    -0.5363415   -1.7335073   -3.3179263 
