24
Energy =
C    -0.9244619    1.2318970    0.8109446 
C     0.0081780    2.1870811    1.0695898 
C     1.3001392    1.9677352    0.7350073 
C    -0.5603620    0.0652237    0.2214542 
C     0.7408779   -0.1581448   -0.1115966 
C     1.6700101    0.8027850    0.1448241 
O    -0.3331629    3.4010135    1.6745979 
H    -1.3185930    3.4875495    1.8987832 
H     2.7129038    0.6460928   -0.1192706 
H    -1.3183425   -0.6866886    0.0146113 
H    -1.9635744    1.3990814    1.0729402 
H     2.0333630    2.7386983    0.9456177 
C     1.1494662   -1.4493374   -0.7848903 
C     1.2870918   -1.2902266   -2.3155883 
H     0.4121955   -2.2572615   -0.5711157 
H     2.1121576   -1.7985203   -0.3473890 
C     2.0082117   -2.4797238   -2.9337502 
O     2.7579490   -2.3051577   -4.0908620 
O     1.9240039   -3.7475649   -2.3702335 
H     2.4379271   -4.3925302   -2.9557231 
N    -0.0500138   -1.1116332   -2.9076725 
H     1.9258510   -0.4049474   -2.5441453 
H    -0.4208262   -0.1711419   -2.6358751 
H     0.0392643   -1.0863738   -3.9520713 
