24
Energy =
C     0.2382912    1.5645266    1.2291913 
C    -0.7234530    2.1924556    0.5153834 
C    -0.7593669    2.0472500   -0.8356635 
C     1.1683233    0.7976636    0.6054773 
C     1.1447342    0.6586477   -0.7490570 
C     0.1699967    1.2826922   -1.4646907 
O    -1.6605701    2.9795378    1.1930407 
H    -2.3704740    3.3882945    0.5959898 
H     0.1225127    1.1542853   -2.5427174 
H     1.9216397    0.2892359    1.2014906 
H     0.2496287    1.6770503    2.3079442 
H    -1.5357649    2.5369462   -1.4122106 
C     2.1709835   -0.2105890   -1.4496791 
C     1.5917692   -1.5713489   -1.8966708 
H     3.0457196   -0.3822745   -0.7837892 
H     2.5706093    0.3339110   -2.3333835 
C     0.8914764   -2.3040480   -0.7410968 
O    -0.4952014   -2.3967021   -0.7005634 
O     1.6289183   -2.8783014    0.2960202 
H     2.6209870   -2.7551298    0.1660260 
N     0.7159329   -1.3559398   -3.0639353 
H     2.4386353   -2.2267320   -2.2048153 
H     1.3078882   -1.1860244   -3.9108542 
H     0.1709278   -2.2305275   -3.2610614 
