24
Energy =
C     0.7400738    2.3867397   -2.0571581 
C    -0.4608428    2.7165553   -1.5286169 
C    -0.9293160    2.0530974   -0.4470074 
C     1.4755092    1.3871152   -1.5080741 
C     1.0128946    0.7162341   -0.4169507 
C    -0.1990844    1.0522326    0.1079509 
O    -1.2143212    3.7402418   -2.0958393 
H    -1.8187240    3.3731213   -2.8232399 
H    -0.5989800    0.5094054    0.9613527 
H     2.4283441    1.1175156   -1.9553686 
H     1.1027206    2.9253990   -2.9251879 
H    -1.8959940    2.3248183   -0.0367403 
C     1.8172640   -0.4223872    0.1780026 
C     1.4599493   -1.7856178   -0.4543268 
H     1.6614779   -0.4575417    1.2786314 
H     2.9029504   -0.2260415    0.0338836 
C    -0.0209341   -2.1305487   -0.2565162 
O    -0.9064703   -2.1007337   -1.3267605 
O    -0.5180656   -2.4536995    1.0072228 
H     0.2086941   -2.4818490    1.7050782 
N     1.8661159   -1.7701770   -1.8719681 
H     2.0261077   -2.5852644    0.0768662 
H     2.9069649   -1.8544025   -1.9406830 
H     1.4619849   -2.5998100   -2.3708746 
