24
Energy =
C     0.4185318    2.4989382   -1.5278873 
C    -0.3319335    2.7298574   -0.4258922 
C    -0.3520437    1.8264067    0.5807967 
C     1.1482085    1.3589057   -1.6297964 
C     1.1359950    0.4462701   -0.6181617 
C     0.3751636    0.6842375    0.4862362 
O    -1.0796422    3.8991130   -0.3256172 
H    -2.0001397    3.7704724   -0.7310541 
H     0.3398876   -0.0402254    1.2959086 
H     1.7411147    1.1831650   -2.5239246 
H     0.4300579    3.2350477   -2.3241066 
H    -0.9551729    2.0240340    1.4605657 
C     1.9313329   -0.8348580   -0.7374861 
C     1.1134982   -1.9450407   -1.4261302 
H     2.2617609   -1.1803695    0.2676837 
H     2.8642594   -0.6381937   -1.3144759 
C     2.0066028   -3.1170830   -1.8039282 
O     2.8004786   -3.0390273   -2.9409160 
O     2.0736702   -4.2510064   -1.0040175 
H     2.7349926   -4.8997532   -1.4123077 
N    -0.0082522   -2.3414973   -0.5529985 
H     0.7110470   -1.5526913   -2.3892383 
H    -0.5562334   -3.0981612   -1.0284134 
H     0.3773639   -2.7898338    0.3131630 
