24
Energy =
C     0.9171297    2.5058676   -0.0500101 
C    -0.1364484    2.3139598    0.7878900 
C    -0.5792438    1.0591031    1.0277220 
C     1.5232687    1.4443158   -0.6394733 
C     1.0770089    0.1804827   -0.4017160 
C     0.0198378   -0.0052308    0.4368430 
O    -0.7815370    3.3845532    1.4153916 
H    -0.4081269    4.2960288    1.1742350 
H    -0.3510873   -1.0071251    0.6371826 
H     2.3582666    1.6159757   -1.3149335 
H     1.2736460    3.5090803   -0.2533287 
H    -1.4217561    0.9166599    1.6965165 
C     1.7383407   -1.0100525   -1.0651936 
C     0.9165516   -1.5604520   -2.2543544 
H     1.8651620   -1.8108852   -0.3023191 
H     2.7671702   -0.7555879   -1.4061495 
C     1.1104058   -0.7545432   -3.5392922 
O     1.2222376    0.6299087   -3.5089144 
O     1.0966600   -1.3952411   -4.7723138 
H     1.2057137   -0.7009188   -5.5008814 
N     1.2669146   -2.9826231   -2.4287048 
H    -0.1707007   -1.4892702   -2.0233215 
H     0.6902246   -3.3768197   -3.2130417 
H     2.2577850   -3.0486673   -2.7646900 
