24
Energy =
C     0.6703714    2.5457731   -0.3943884 
C    -0.4961990    2.4060167    0.2763087 
C    -0.9238089    1.1759153    0.6422535 
C     1.4124562    1.4531992   -0.7067161 
C     0.9907347    0.2111464   -0.3387488 
C    -0.1866385    0.0779217    0.3332166 
O    -1.2552533    3.5270666    0.5953617 
H    -1.9225611    3.7269479   -0.1421791 
H    -0.5451298   -0.9072303    0.6194166 
H     2.3384013    1.5797185   -1.2638129 
H     1.0010275    3.5378224   -0.6824860 
H    -1.8609109    1.0813320    1.1812366 
C     1.7986150   -1.0126983   -0.7153874 
C     1.2629784   -1.6851454   -2.0020118 
H     1.7767600   -1.7421158    0.1239046 
H     2.8683321   -0.7389003   -0.8666065 
C     1.2880590   -0.7231296   -3.1815173 
O     2.4963242   -0.2969817   -3.7225238 
O     0.0982492   -0.2218276   -3.6916118 
H     0.3115441    0.3962704   -4.4640254 
N     1.9905129   -2.9509625   -2.2713146 
H     0.1849598   -1.9305262   -1.8650552 
H     2.5212202   -2.8952187   -3.1758071 
H     2.7080141   -3.1680343   -1.5405641 
