24
Energy =
C     0.6323385    2.4979552   -0.0494180 
C    -0.0990174    2.7945388   -1.1568992 
C    -0.1625523    1.9051489   -2.1736084 
C     1.2956489    1.3167881    0.0342514 
C     1.2352838    0.4227161   -0.9910477 
C     0.4983434    0.7225653   -2.0955420 
O    -0.7942105    4.0024086   -1.2751498 
H    -0.6986317    4.6147731   -0.4723161 
H     0.4317976    0.0195972   -2.9222285 
H     1.8708825    1.0922347    0.9291196 
H     0.6867244    3.2040972    0.7721346 
H    -0.7511904    2.1525955   -3.0502538 
C     1.9594790   -0.9018787   -0.8981763 
C     1.0071561   -2.0694079   -0.5411607 
H     2.7841798   -0.8552184   -0.1505885 
H     2.4554811   -1.1067213   -1.8740935 
C     1.7108359   -3.4066125   -0.6999041 
O     1.1677604   -4.3923312   -1.5167473 
O     2.9272164   -3.6403920   -0.0664209 
H     3.2222998   -4.5865270   -0.2699001 
N     0.4766485   -1.9108557    0.8248198 
H     0.1562866   -2.0923415   -1.2609760 
H     1.2657805   -1.8336525    1.5107730 
H    -0.1000746   -1.0397675    0.8898010 
