24
Energy =
C    -1.1028899    1.6383751   -1.2447888 
C    -1.5465548    1.4952801    0.0255251 
C    -0.7448386    0.9417149    0.9640463 
C     0.1537133    1.2438324   -1.5771363 
C     0.9709929    0.6990567   -0.6333779 
C     0.5102426    0.5402937    0.6382430 
O    -2.8316421    1.9077423    0.3647048 
H    -2.8336536    2.8810871    0.6488442 
H     1.1400791    0.0893184    1.4005823 
H     0.4968178    1.3449825   -2.6069957 
H    -1.7687712    2.0598476   -1.9904540 
H    -1.1189466    0.8161324    1.9745262 
C     2.3614749    0.2348239   -1.0070599 
C     2.3585601   -1.2005470   -1.5771734 
H     3.0253591    0.2794671   -0.1149215 
H     2.8130212    0.9338477   -1.7468126 
C     1.5323288   -1.2994301   -2.8601358 
O     0.3481227   -2.0250069   -2.8523724 
O     1.8978884   -0.6219350   -4.0236805 
H     2.8273416   -0.2343905   -3.9359170 
N     3.7551214   -1.6151647   -1.7960562 
H     1.8702908   -1.8860977   -0.8433670 
H     4.2388846   -1.7047454   -0.8712616 
H     3.7692990   -2.5734649   -2.2221858 
