24
Energy =
C     0.4797602    2.3490518    0.0076207 
C    -0.1493909    1.8894935    1.1246198 
C    -0.1675862    0.5620322    1.3828477 
C     1.0930564    1.4711981   -0.8440253 
C     1.0759440    0.1397925   -0.5714694 
C     0.4368275   -0.3123508    0.5401842 
O    -0.7861257    2.7578853    2.0171945 
H    -0.7370410    3.7396172    1.7678102 
H     0.4047206   -1.3758600    0.7633944 
H     1.6000818    1.8112042   -1.7855603 
H     0.4761539    3.4198793   -0.1914033 
H    -0.6755345    0.2077558    2.2730774 
C     1.7440839   -0.8207900   -1.5282219 
C     0.8865378   -1.0626437   -2.8062122 
H     1.9682160   -1.7890632   -1.0233441 
H     2.7539494   -0.4213814   -1.7946284 
C     1.6609648   -0.6974363   -4.0872282 
O     1.7514784   -1.6073443   -5.1454669 
O     2.2407570    0.5865353   -4.2131586 
H     2.1287957    1.2236046   -3.4080013 
N     0.4126930   -2.4611730   -2.7940321 
H     0.0075404   -0.3758321   -2.8256590 
H    -0.2733260   -2.5852515   -2.0114033 
H    -0.1187807   -2.6696317   -3.6751729 
