24
Energy =
C     0.0716873    0.8468479    1.4391457 
C    -0.1106030    2.1101366    0.9898979 
C     0.3629913    2.4711668   -0.2248134 
C     0.7412791   -0.0576859    0.6799858 
C     1.2376937    0.3040847   -0.5358080 
C     1.0360293    1.5734103   -0.9882593 
O    -0.7936686    3.0352717    1.7739521 
H    -0.1563721    3.5196623    2.3961981 
H     1.4001796    1.8738225   -1.9683561 
H     0.8719452   -1.0712383    1.0497115 
H    -0.3308900    0.5667556    2.4063825 
H     0.1914076    3.4802600   -0.5841808 
C     1.9637893   -0.7076442   -1.3953866 
C     0.9862384   -1.4852739   -2.3081817 
H     2.5128520   -1.4213172   -0.7409167 
H     2.7411810   -0.1981086   -2.0072378 
C     0.2784314   -0.5818563   -3.3182575 
O    -1.0929288   -0.3887011   -3.2076621 
O     0.9717605    0.1034248   -4.3172674 
H     1.9472861   -0.1448527   -4.3276954 
N     1.6968699   -2.5967161   -2.9673647 
H     0.1617675   -1.9077886   -1.6839262 
H     2.5767864   -2.2600238   -3.4254051 
H     1.9751438   -3.3112197   -2.2536259 
