24
Energy =
C     0.5885914    2.5628978   -1.4368624 
C     0.0138736    2.8216938   -0.2408125 
C     0.0115244    1.8645779    0.7244704 
C     1.1596317    1.3567176   -1.6788093 
C     1.1625331    0.3933955   -0.7151074 
C     0.5856931    0.6575313    0.4900989 
O    -0.5649683    4.0773809   -0.0309541 
H    -0.9977786    4.1871119    0.8798436 
H     0.5645881   -0.1016894    1.2692338 
H     1.6110772    1.1697002   -2.6491469 
H     0.5827732    3.3329535   -2.2002906 
H    -0.4545925    2.0598826    1.6838744 
C     1.7907701   -0.9603231   -0.9848565 
C     0.7789269   -2.0314472   -1.4666485 
H     2.2952081   -1.3224183   -0.0598255 
H     2.5983124   -0.8559234   -1.7425254 
C    -0.1997508   -2.4333868   -0.3721464 
O    -1.3121510   -1.6539456   -0.0836975 
O     0.0565818   -3.5506443    0.4107545 
H    -0.1650321   -4.3802845   -0.1204695 
N     0.0950246   -1.6102379   -2.7040175 
H     1.3515202   -2.9610363   -1.6861374 
H    -0.5869489   -0.8412264   -2.4882127 
H     0.7852310   -1.2355130   -3.3957295 
