24
Energy =
C     0.8045908    2.5289109   -0.0933921 
C    -0.3270559    2.3382387    0.6360263 
C    -0.7531744    1.0806510    0.8916127 
C     1.5038140    1.4630211   -0.5589287 
C     1.0794391    0.1960834   -0.2960203 
C    -0.0586049    0.0107641    0.4274804 
O    -1.0699950    3.4137239    1.1334297 
H    -0.6934213    4.3228159    0.8874816 
H    -0.4205386   -0.9922071    0.6379331 
H     2.4020529    1.6323884   -1.1486734 
H     1.1515526    3.5336407   -0.3091140 
H    -1.6600729    0.9438333    1.4703931 
C     1.8426700   -0.9959722   -0.8320758 
C     1.2492224   -1.5081477   -2.1673258 
H     1.8205225   -1.8107391   -0.0753045 
H     2.9160262   -0.7349442   -0.9841554 
C     1.3612336   -0.4710006   -3.2747341 
O     0.2702958   -0.2125628   -4.0985648 
O     2.5473750    0.2283243   -3.4812681 
H     2.4312813    0.8285532   -4.2867548 
N     1.9010872   -2.7706816   -2.5771657 
H     0.1557262   -1.6796432   -2.0251679 
H     2.6138133   -3.1076678   -1.8880493 
H     1.1829946   -3.5267845   -2.6749844 
