24
Energy =
C     0.0283858    1.6572917    1.1034443 
C    -0.9683955    2.1493091    0.3322472 
C    -0.9560283    1.9409843   -1.0039151 
C     1.0404732    0.9492472    0.5404494 
C     1.0621626    0.7379820   -0.8056066 
C     0.0535639    1.2341877   -1.5738833 
O    -2.0060638    2.8722859    0.9120937 
H    -2.7603267    2.2513703    1.1849411 
H     0.0448186    1.0494745   -2.6445569 
H     1.8247685    0.5452602    1.1759644 
H     0.0055279    1.8317397    2.1734440 
H    -1.7635234    2.3391327   -1.6089280 
C     2.1762467   -0.0739260   -1.4363146 
C     1.7404811   -1.5175395   -1.7665886 
H     3.0553650   -0.1105032   -0.7529948 
H     2.5278898    0.4328037   -2.3612720 
C     1.1883699   -2.2323599   -0.5365311 
O    -0.1557546   -2.5769433   -0.4331353 
O     2.0467604   -2.5491288    0.5089135 
H     1.5123522   -3.0138725    1.2316905 
N     0.8006231   -1.4895537   -2.9051170 
H     2.6466199   -2.1034992   -2.0460067 
H     1.3372723   -1.3270820   -3.7892300 
H     0.3442296   -2.4285504   -3.0072612 
