24
Energy =
C     0.9265862    2.3762989    0.7949255 
C    -0.0810165    2.8045525    0.0034600 
C    -0.6028240    1.9793305   -0.9302050 
C     1.4128340    1.1167856    0.6583281 
C     0.9021700    0.2740077   -0.2862746 
C    -0.1226870    0.7176167   -1.0734134 
O    -0.5784776    4.0961891    0.1465004 
H    -1.3278303    4.1180489    0.8292782 
H    -0.5715018    0.0901342   -1.8275739 
H     2.2177211    0.7903591    1.3127546 
H     1.3397088    3.0512524    1.5366807 
H    -1.4079668    2.3377789   -1.5630482 
C     1.4665339   -1.1392268   -0.3705054 
C     1.2757880   -1.8979671   -1.7203687 
H     1.0632513   -1.7426703    0.4718164 
H     2.5619558   -1.0685193   -0.1732784 
C     2.3831817   -2.9161115   -1.9328609 
O     3.0704742   -2.9591194   -3.1409928 
O     2.7405185   -3.7981739   -0.9191998 
H     3.4646404   -4.4115224   -1.2686044 
N    -0.0376972   -2.5736467   -1.7865100 
H     1.3870950   -1.1830995   -2.5695498 
H    -0.4566835   -2.7391373   -0.8416231 
H    -0.7176093   -2.0344194   -2.3680099 
