24
Energy =
C    -0.8050014    1.4576596    0.7690592 
C    -0.8206652    2.5296891   -0.0663136 
C     0.0797208    2.6063088   -1.0717759 
C     0.1116181    0.4705375    0.5956585 
C     1.0164160    0.5425545   -0.4215050 
C     0.9954655    1.6208683   -1.2533074 
O    -1.7492642    3.5633419    0.0848320 
H    -2.3986452    3.4271178    0.8522736 
H     1.7118352    1.7086326   -2.0657266 
H     0.0960973   -0.3956805    1.2592797 
H    -1.5303004    1.3844543    1.5732553 
H     0.0562428    3.4689997   -1.7292977 
C     2.0442840   -0.5559627   -0.6151009 
C     1.5051266   -1.8079905   -1.3558728 
H     2.4394895   -0.8651919    0.3796592 
H     2.9268467   -0.1642561   -1.1683694 
C     0.4386934   -2.5481214   -0.5443365 
O     0.8390686   -3.5931610    0.2749938 
O    -0.8925218   -2.1317648   -0.4749758 
H    -1.0946254   -1.3562230   -1.0860101 
N     1.1249281   -1.5136560   -2.7584994 
H     2.3475403   -2.5369857   -1.4010748 
H     0.0945153   -1.5928053   -2.9220465 
H     1.4256290   -0.5613242   -3.0678906 
