24
Energy =
C     0.5112812    2.3366766    0.1648613 
C    -0.5405808    1.9373269    0.9165476 
C    -0.8311530    0.6208995    1.0287502 
C     1.2875205    1.4181596   -0.4645098 
C     1.0100742    0.0902133   -0.3440458 
C    -0.0620148   -0.3031755    0.3987209 
O    -1.3303791    2.8804839    1.5672798 
H    -0.9758701    3.0645015    2.4992079 
H    -0.3115637   -1.3572183    0.4885383 
H     2.1230627    1.7540739   -1.0744261 
H     0.7199044    3.3963441    0.0650711 
H    -1.6883502    0.3161253    1.6193502 
C     1.8557371   -0.9348400   -1.0670955 
C     1.3047236   -1.2390855   -2.4752092 
H     1.8836457   -1.8812846   -0.4798590 
H     2.9117627   -0.5917830   -1.1223020 
C     1.3392020   -0.0292803   -3.4118227 
O     0.1534318    0.4159686   -3.9797437 
O     2.5247868    0.6320686   -3.7334205 
H     3.3205795    0.2158691   -3.2782489 
N     2.0263576   -2.4026582   -3.0202930 
H     0.2242810   -1.5053110   -2.3771662 
H     1.6183414   -2.6596174   -3.9523955 
H     3.0315037   -2.1623030   -3.1896721 
