24
Energy =
C    -0.4065359    1.1500090    1.2359396 
C     0.0848313    2.3400668    0.8202995 
C     1.0625827    2.3797874   -0.1136827 
C     0.0737225   -0.0067635    0.7125901 
C     1.0564470    0.0253347   -0.2308834 
C     1.5479118    1.2275221   -0.6422290 
O    -0.4094155    3.5232477    1.3597249 
H    -1.2098728    3.8524782    0.8311652 
H     2.3334050    1.2745248   -1.3931062 
H    -0.3325701   -0.9551073    1.0547916 
H    -1.1827919    1.1339937    1.9933490 
H     1.4546752    3.3405315   -0.4311482 
C     1.5908989   -1.2575561   -0.8285773 
C     1.0434336   -1.5180438   -2.2521776 
H     1.3619327   -2.1313660   -0.1770830 
H     2.7030701   -1.1956317   -0.8623245 
C     1.8070371   -2.6518113   -2.9084206 
O     2.6494255   -2.3970689   -3.9837176 
O     1.7269249   -3.9407142   -2.3941024 
H     2.2983229   -4.5518122   -2.9638209 
N    -0.4020595   -1.8072078   -2.2137705 
H     1.2224627   -0.6272534   -2.8986306 
H    -0.5730435   -2.6789124   -1.6544526 
H    -0.9238815   -1.0185467   -1.7677377 
