24
Energy =
C     1.5064999    2.5124364   -0.9218621 
C     0.4306022    2.9281657   -0.2146297 
C    -0.2929847    2.0386107    0.5025900 
C     1.8702641    1.2046533   -0.9048116 
C     1.1532381    0.3034420   -0.1766777 
C     0.0645736    0.7289882    0.5241496 
O     0.0620161    4.2692367   -0.2319680 
H     0.5270822    4.7789682    0.5109203 
H    -0.5287473    0.0201971    1.0980017 
H     2.7311575    0.8816357   -1.4853946 
H     2.0672204    3.2341693   -1.5061476 
H    -1.1635946    2.3827771    1.0512325 
C     1.5502670   -1.1595470   -0.1651552 
C     0.8273606   -1.9955131   -1.2431697 
H     1.3444569   -1.5965860    0.8380820 
H     2.6478487   -1.2539256   -0.3203736 
C    -0.6830276   -2.0295102   -1.0471235 
O    -1.5486843   -1.8662017   -2.1224978 
O    -1.2138073   -2.2889956    0.2110680 
H    -2.2223436   -2.3440457    0.1312502 
N     1.2357687   -1.5306157   -2.5823186 
H     1.1503031   -3.0538788   -1.1160995 
H     0.8700466   -2.2048656   -3.2972964 
H     0.7525469   -0.6243740   -2.7940563 
