24
Energy =
C     0.1963242    1.8334496    0.9828414 
C    -0.2072478    2.6608186   -0.0087605 
C     0.0956604    2.3732214   -1.2954863 
C     0.8985391    0.7093279    0.6900848 
C     1.2056854    0.4123508   -0.6035190 
C     0.7978138    1.2510720   -1.5963383 
O    -0.9276464    3.8117566    0.2949726 
H    -1.9230074    3.6189099    0.3095029 
H     1.0344062    1.0323134   -2.6348341 
H     1.2134830    0.0530394    1.4974016 
H    -0.0442135    2.0823225    2.0106913 
H    -0.2249770    3.0505170   -2.0801321 
C     1.9763845   -0.8445301   -0.9397427 
C     1.0557580   -1.9756737   -1.4635116 
H     2.5514828   -1.2065747   -0.0568985 
H     2.7454428   -0.5997167   -1.7081804 
C     1.8606026   -3.1235463   -2.0483537 
O     3.0708423   -3.5026959   -1.4817816 
O     1.3627795   -3.8478461   -3.1209775 
H     0.6954161   -4.5162171   -2.7640631 
N     0.1611046   -2.4587171   -0.3975375 
H     0.4427859   -1.5900442   -2.3106429 
H     0.7266079   -2.7435225    0.4382727 
H    -0.4807597   -1.6882379   -0.0968287 
