24
Energy =
C    -0.3788662    2.0625842   -1.9215022 
C    -0.7833230    2.4973975   -0.7057353 
C    -0.2591600    1.9532085    0.4164086 
C     0.5609703    1.0881074   -2.0196213 
C     1.1048163    0.5464234   -0.8939581 
C     0.6818673    0.9791120    0.3263180 
O    -1.7467027    3.4969179   -0.6093291 
H    -1.3129358    4.4133927   -0.6100734 
H     1.0848114    0.5400030    1.2355100 
H     0.8706139    0.7429427   -3.0028196 
H    -0.8199961    2.4961702   -2.8122226 
H    -0.6049728    2.2972471    1.3853324 
C     2.1357639   -0.5553543   -0.9995273 
C     1.4755895   -1.9471665   -1.0355591 
H     2.8472014   -0.5051780   -0.1442464 
H     2.7501493   -0.4033119   -1.9156024 
C     2.4846097   -3.0149620   -1.4228974 
O     2.2868283   -3.7797309   -2.5654672 
O     3.6153609   -3.2301907   -0.6445114 
H     4.1601358   -3.9762426   -1.0587821 
N     0.8520390   -2.2239456    0.2713897 
H     0.6933060   -1.9564607   -1.8312814 
H     0.3149262   -3.1216321    0.2090649 
H     1.6042383   -2.3837813    0.9851628 
