24
Energy =
C     1.1537793    2.4884177    0.0596651 
C    -0.0245030    2.3900061    0.7305128 
C    -0.6340194    1.1882531    0.8376757 
C     1.7157438    1.3859467   -0.4974395 
C     1.1016060    0.1746244   -0.3950158 
C    -0.0782014    0.0831194    0.2800876 
O    -0.6296602    3.5040750    1.3202201 
H    -0.1222965    4.3710801    1.1769247 
H    -0.5817615   -0.8748469    0.3773651 
H     2.6526822    1.4852676   -1.0410740 
H     1.6484034    3.4489883   -0.0376513 
H    -1.5736372    1.1253563    1.3755567 
C     1.7234843   -1.0639523   -1.0114066 
C     0.9726414   -1.5458598   -2.2855198 
H     1.7137721   -1.8587805   -0.2340125 
H     2.7945272   -0.8888595   -1.2622227 
C     1.2452174   -0.6581870   -3.5068220 
O     1.5500887    0.6868838   -3.3658243 
O     1.0958111   -1.1657217   -4.7904201 
H     0.1132512   -1.1825659   -5.0202008 
N     1.2658340   -2.9789773   -2.5476196 
H    -0.1228206   -1.4567516   -2.1159692 
H     1.7989721   -3.0998897   -3.4455829 
H     1.8621449   -3.4212642   -1.8107958 
