24
Energy =
C     1.1572044    2.4904696    0.1085975 
C    -0.0919430    2.4789880    0.6462132 
C    -0.7518297    1.3061426    0.7782061 
C     1.7390842    1.3308943   -0.2904137 
C     1.0794581    0.1480566   -0.1476851 
C    -0.1744965    0.1437789    0.3822590 
O    -0.7200419    3.6553385    1.0679288 
H    -0.1636618    4.4921649    0.9310489 
H    -0.7257180   -0.7875239    0.4825322 
H     2.7350630    1.3569666   -0.7261659 
H     1.6920106    3.4271009   -0.0063709 
H    -1.7506384    1.3112772    1.2004133 
C     1.7183948   -1.1422840   -0.6129862 
C     1.3602039   -1.4511239   -2.0790502 
H     1.3986386   -1.9877341    0.0369635 
H     2.8242252   -1.0694839   -0.5014644 
C     2.2311026   -2.5694646   -2.6238019 
O     2.1081357   -3.8638232   -2.1295756 
O     3.1842061   -2.2966260   -3.5955638 
H     3.6686741   -3.1534965   -3.8317382 
N    -0.0779872   -1.7648922   -2.1750608 
H     1.5887102   -0.5551947   -2.7039338 
H    -0.3432364   -1.8274491   -3.1868088 
H    -0.2608960   -2.7132787   -1.7642992 
