24
Energy =
C    -0.5715248    1.9709505    0.2581752 
C    -0.3115045    2.7108891   -0.8531900 
C     0.6096107    2.2773302   -1.7444259 
C     0.0873397    0.8051135    0.4707733 
C     1.0135205    0.3645692   -0.4270883 
C     1.2716463    1.1118789   -1.5367360 
O    -0.9747283    3.9173237   -1.1026456 
H    -1.6457971    4.1763804   -0.3870845 
H     2.0104551    0.7838558   -2.2643179 
H    -0.1335754    0.2295540    1.3658113 
H    -1.3067664    2.3091254    0.9810836 
H     0.8126127    2.8747082   -2.6272779 
C     1.7527171   -0.9410432   -0.1998427 
C     1.2720201   -2.0684292   -1.1547710 
H     1.6458870   -1.2821197    0.8543459 
H     2.8383123   -0.7447286   -0.3524975 
C     2.2872292   -3.2327723   -1.1322525 
O     3.6123088   -2.9244767   -1.4327715 
O     2.0061253   -4.5731412   -0.8252800 
H     1.0422727   -4.8541753   -0.8116946 
N    -0.1551515   -2.4058979   -0.9170964 
H     1.3287496   -1.6690832   -2.1902257 
H    -0.3422803   -3.4027930   -0.7003790 
H    -0.5590177   -1.8719004   -0.1147111 
