24
Energy =
C     0.5550958    1.5361588    1.2349509 
C     0.8261379    2.6564853    0.5132316 
C     1.3338581    2.5406640   -0.7348107 
C     0.7951247    0.3093357    0.7064415 
C     1.3144331    0.1924275   -0.5466023 
C     1.5769933    1.3165794   -1.2679577 
O     0.5917906    3.9356155    1.0287291 
H     0.2028951    3.9384378    1.9651843 
H     1.9756356    1.2446485   -2.2778822 
H     0.5676078   -0.5774902    1.2925340 
H     0.1435680    1.6191551    2.2348785 
H     1.5389842    3.4414757   -1.3027695 
C     1.5603246   -1.1752331   -1.1455657 
C     0.2966634   -1.7549601   -1.8034482 
H     1.9131568   -1.8722018   -0.3535140 
H     2.3808003   -1.1355603   -1.8986185 
C    -0.1694393   -0.9045998   -2.9797256 
O     0.7079151   -0.5632559   -4.0045288 
O    -1.4914118   -0.4854372   -3.0494752 
H    -1.6175992    0.0606194   -3.8919503 
N     0.5952135   -3.1517735   -2.1849926 
H    -0.5414189   -1.7277528   -1.0659013 
H     0.0321898   -3.8057073   -1.5917541 
H     0.3243182   -3.3462784   -3.1802239 
