24
Energy =
C    -0.7178717    1.7556056   -0.4387637 
C    -0.0571484    2.7826246   -1.0260216 
C     1.2605527    2.6320737   -1.3169645 
C    -0.0847756    0.5714983   -0.1382776 
C     1.2395002    0.4456595   -0.4330477 
C     1.9016208    1.4761229   -1.0255319 
O    -0.7406467    3.9845790   -1.3162378 
H    -0.1541571    4.6657356   -1.7714461 
H     2.9496067    1.3774713   -1.2781861 
H    -1.8314036   -1.6072592    1.3471158 
H    -1.7691118    1.8686487   -0.2061440 
H     1.8073330    3.4370808   -1.7874875 
C     1.9385676   -0.8584547   -0.1721772 
C     1.2347731   -2.0173251   -0.9116686 
H     1.9275216   -1.0427416    0.9226432 
H     2.9974861   -0.8140521   -0.4892188 
C    -0.1168640   -2.2808775   -0.2706683 
O    -0.3393826   -3.4486679    0.4624085 
O    -1.1344059   -1.3077222   -0.2252924 
H    -1.0336616   -0.4538710    0.9202204 
N     1.1182661   -1.7499647   -2.3604428 
H     1.8373082   -2.9358266   -0.7704427 
H     0.3610537   -1.0170708   -2.4388821 
H     1.9860254   -1.2723985   -2.6860001 
