24
Energy =
C     0.6669505    2.4824109   -0.0679448 
C    -0.2852452    2.1704441    0.8412673 
C    -0.5170790    0.8768030    1.1620086 
C     1.3878334    1.4997309   -0.6650020 
C     1.1610510    0.1950751   -0.3461282 
C     0.1989913   -0.1115732    0.5682638 
O    -1.0237495    3.1801629    1.4508860 
H    -1.8629077    3.3795484    0.9167819 
H    -0.0043317   -1.1475987    0.8262840 
H     2.1382464    1.7650606   -1.4062599 
H     0.8426000    3.5235567   -0.3156196 
H    -1.2806299    0.6411182    1.8954158 
C     1.9368855   -0.9051851   -1.0367497 
C     1.1935358   -1.4408796   -2.2739236 
H     2.1098838   -1.7455586   -0.3271549 
H     2.9512827   -0.5479822   -1.3201451 
C     0.9622491   -0.3575709   -3.3327418 
O    -0.3374870    0.0053105   -3.6600068 
O     2.0207709    0.2793804   -3.9810250 
H     2.9116918   -0.0682118   -3.6615381 
N     1.9466339   -2.6063677   -2.7834298 
H     0.1741803   -1.7650527   -1.9508274 
H     1.3052895   -3.4321836   -2.8539600 
H     2.3081258   -2.4446452   -3.7547304 
