24
Energy =
C     0.0223318    1.5246230    1.1263257 
C    -0.2020732    2.5974281    0.3211960 
C     0.2992980    2.6071075   -0.9346337 
C     0.7483270    0.4711844    0.6730296 
C     1.2628425    0.4845443   -0.5874999 
C     1.0276549    1.5578527   -1.3922499 
O    -0.9431106    3.6996849    0.7583404 
H    -1.2962179    3.6115202    1.7049572 
H     1.4124950    1.5794545   -2.4097681 
H     0.9140418   -0.3820908    1.3259254 
H    -0.3803427    1.5060352    2.1334249 
H     0.1054270    3.4640110   -1.5708247 
C     2.0534192   -0.7007484   -1.0996474 
C     1.1388380   -1.7844440   -1.7082788 
H     2.6459291   -1.1364201   -0.2652514 
H     2.7973312   -0.3758363   -1.8630957 
C     0.3938200   -1.2724536   -2.9359628 
O    -0.9500355   -1.5746254   -3.1068642 
O     1.0551856   -0.5543001   -3.9251137 
H     1.4854222   -1.2177486   -4.5533169 
N     1.9612639   -2.9628773   -2.0345662 
H     0.3575235   -2.0662567   -0.9631129 
H     2.3527818   -3.3664976   -1.1505152 
H     1.3440506   -3.7102909   -2.4355175 
