24
Energy =
C     0.5984734    2.6269342   -0.6459705 
C     0.3092191    2.4778089    0.6743277 
C     0.5079931    1.2807230    1.2713009 
C     1.0878208    1.5804495   -1.3592709 
C     1.2982802    0.3771920   -0.7571664 
C     0.9995470    0.2322714    0.5637526 
O    -0.1929759    3.5360080    1.4374596 
H    -0.3261160    4.3954059    0.9160595 
H     1.1397355   -0.7258962    1.0596741 
H     1.3002801    1.7041733   -2.4188800 
H     0.4343349    3.5817245   -1.1343523 
H     0.2626573    1.1708010    2.3222211 
C     1.8304720   -0.7952390   -1.5572219 
C     0.7132224   -1.6699300   -2.1579583 
H     2.4847183   -1.4240215   -0.9114827 
H     2.4783466   -0.4289656   -2.3837549 
C    -0.1259810   -2.3372153   -1.0716407 
O     0.4134331   -3.3873102   -0.3430123 
O    -1.3925866   -1.8732335   -0.7407227 
H    -2.0561928   -2.2458246   -1.4025779 
N    -0.0713747   -0.8770588   -3.1255232 
H     1.2091163   -2.5063361   -2.7027309 
H    -0.6666363   -1.5242355   -3.6946712 
H    -0.7329063   -0.2459784   -2.6102677 
