24
Energy =
C     0.8655606    2.5910932   -0.9039488 
C     0.3146784    2.7313138    0.3236218 
C     0.2542145    1.6725261    1.1632772 
C     1.3642299    1.3907144   -1.2946453 
C     1.3084074    0.3194718   -0.4546492 
C     0.7508333    0.4686852    0.7799406 
O    -0.1976212    3.9625965    0.7200266 
H     0.5209809    4.5231177    1.1649420 
H     0.6966509   -0.3714292    1.4677120 
H     1.8065688    1.2930841   -2.2828561 
H     0.8994288    3.4465185   -1.5698069 
H    -0.1972616    1.7969527    2.1419979 
C     1.8589090   -1.0208118   -0.8951784 
C     0.9630257   -1.7103794   -1.9595722 
H     1.9955311   -1.7068985   -0.0280265 
H     2.8794569   -0.8568316   -1.3113260 
C     1.6611248   -2.9123650   -2.6026836 
O     2.8636872   -3.3885076   -2.0882216 
O     1.1246607   -3.5369428   -3.7290236 
H     0.2136211   -3.1666623   -3.9563634 
N    -0.3356890   -2.1192646   -1.3829468 
H     0.7971964   -0.9886987   -2.7928130 
H    -0.4817648   -1.7519639   -0.4144065 
H    -1.1154848   -1.7253040   -1.9605660 
