24
Energy =
C    -0.8878468    1.9477898   -0.4741269 
C    -1.0034619    1.6852263    0.8550338 
C    -0.1170306    0.8565403    1.4512988 
C     0.1182361    1.3874057   -1.1947880 
C     1.0208327    0.5661564   -0.5932094 
C     0.8904393    0.2957805    0.7352980 
O    -2.0226021    2.2520806    1.6276944 
H    -2.6653789    2.8291920    1.0975151 
H     1.5792910   -0.3846710    1.2295111 
H     0.1873995    1.5723110   -2.2634650 
H    -1.6046775    2.5975401   -0.9644618 
H    -0.2302294    0.6403874    2.5074111 
C     2.1424454   -0.0622251   -1.4001805 
C     1.6456483   -1.1878200   -2.3360056 
H     2.9140025   -0.4866439   -0.7193353 
H     2.6575805    0.7227391   -1.9930739 
C     0.8861961   -2.2636838   -1.5486798 
O     1.4663806   -2.7925916   -0.4050987 
O    -0.3481416   -2.7602574   -1.9374745 
H    -0.5182521   -2.3247326   -2.8396287 
N     0.8723440   -0.5960240   -3.4426798 
H     2.5267907   -1.7154739   -2.7653796 
H     1.5117322    0.0125389   -4.0188802 
H     0.5900521   -1.3680972   -4.0813848 
