24
Energy =
C     0.2583808    2.0625743    0.5990479 
C     0.0076282    2.8255700   -0.4984108 
C     0.3987815    2.3911187   -1.7178753 
C     0.8979980    0.8722896    0.4711295 
C     1.2955096    0.4363893   -0.7561219 
C     1.0386026    1.2020498   -1.8518408 
O    -0.6501993    4.0560078   -0.4014218 
H    -0.9077995    4.3140221    0.5449637 
H     1.3423897    0.8686830   -2.8412900 
H     1.0870616    0.2723829    1.3576818 
H    -0.0533036    2.4024372    1.5808237 
H     0.1916467    3.0078513   -2.5856536 
C     1.9928308   -0.8969519   -0.9088630 
C     1.0381966   -1.9999188   -1.4255613 
H     2.4558469   -1.2172084    0.0519618 
H     2.8401271   -0.7758041   -1.6235595 
C     1.8138561   -3.2600505   -1.7647368 
O     2.2853787   -3.4546579   -3.0552439 
O     2.1385556   -4.1834236   -0.7802779 
H     1.3502940   -4.8023163   -0.6604808 
N    -0.0289631   -2.2761846   -0.4468507 
H     0.5755369   -1.6696507   -2.3846805 
H     0.3851259   -2.4321214    0.5031876 
H    -0.6661707   -1.4477198   -0.3812925 
