24
Energy =
C    -0.3281462    2.5337659   -1.2439669 
C    -0.6678919    2.5566956    0.0721786 
C    -0.1320084    1.6466483    0.9166686 
C     0.5441739    1.6036711   -1.7068235 
C     1.0867679    0.6867538   -0.8576351 
C     0.7417297    0.7144016    0.4595163 
O    -1.5629185    3.5028020    0.5821356 
H    -1.9263948    4.1443239   -0.1141713 
H     1.1591078   -0.0094893    1.1554138 
H     0.8006673    1.5944617   -2.7632103 
H    -0.7540738    3.2572401   -1.9302451 
H    -0.4137318    1.6734442    1.9636462 
C     2.0525869   -0.3612329   -1.3760936 
C     1.3612520   -1.6796572   -1.7923925 
H     2.8219018   -0.5743788   -0.5995731 
H     2.6072363    0.0413942   -2.2526732 
C     0.6543194   -2.3692489   -0.6310465 
O     1.3351546   -2.5948973    0.5601206 
O    -0.6441370   -2.8453797   -0.7678795 
H    -0.9272148   -3.2797672    0.1012872 
N     0.4819660   -1.4326014   -2.9516555 
H     2.1599704   -2.3937532   -2.0966718 
H     0.0905624   -2.3499692   -3.2771388 
H    -0.3574078   -0.8926039   -2.6317144 
