24
Energy =
C     0.1198535    1.6730741    1.0854130 
C    -0.2015279    2.5877044    0.1416025 
C     0.1595601    2.3867555   -1.1466919 
C     0.8129797    0.5565215    0.7449380 
C     1.1898367    0.3531568   -0.5481777 
C     0.8526031    1.2725789   -1.4949236 
O    -0.9140693    3.7293977    0.4937730 
H    -0.2830761    4.4760164    0.7634002 
H     1.1320630    1.1214723   -2.5349004 
H     1.0552717   -0.1786859    1.5093275 
H    -0.1903211    1.8403778    2.1112813 
H    -0.1158813    3.1216647   -1.8959297 
C     1.9422280   -0.8996738   -0.9373780 
C     0.9995282   -2.0036356   -1.4590283 
H     2.5181419   -1.2984958   -0.0711906 
H     2.6997189   -0.6472156   -1.7137213 
C     1.7813061   -3.1389368   -2.1057561 
O     3.1268762   -3.3480444   -1.8190711 
O     1.1377760   -3.9930743   -2.9908520 
H     1.7993675   -4.6915872   -3.3060542 
N     0.1606436   -2.4879597   -0.3455249 
H     0.3587211   -1.5930044   -2.2751539 
H    -0.5959324   -1.7879294   -0.1626327 
H    -0.3375746   -3.3623814   -0.6463682 
