24
Energy =
C    -0.6479673    2.0119277   -1.4102235 
C    -0.8658574    2.3681068   -0.1234338 
C    -0.1195625    1.8244319    0.8650718 
C     0.3232333    1.1136466   -1.7140820 
C     1.0806823    0.5626783   -0.7246025 
C     0.8534386    0.9251822    0.5691461 
O    -1.8634161    3.2873932    0.1848610 
H    -1.4979370    4.2332058    0.1644285 
H     1.4469940    0.4994629    1.3739221 
H     0.4896620    0.8380796   -2.7525736 
H    -1.2601698    2.4493176   -2.1914664 
H    -0.3102162    2.1131265    1.8934335 
C     2.1566638   -0.4465147   -1.0650687 
C     1.5627491   -1.8209151   -1.4673668 
H     2.8665264   -0.5777685   -0.2170946 
H     2.7629122   -0.0376473   -1.9069420 
C     2.6320189   -2.7061814   -2.1016758 
O     2.7016754   -2.7922301   -3.4872738 
O     3.5902086   -3.3724969   -1.3377828 
H     3.4120017   -3.2539518   -0.3513272 
N     0.9270539   -2.4956100   -0.3131783 
H     0.8093462   -1.6619724   -2.2756558 
H     0.9463687   -1.9109608    0.5545944 
H    -0.0846907   -2.6705470   -0.5227089 
