24
Energy =
C     1.3116487    2.5211755   -1.1893583 
C     0.2195846    2.9514743   -0.5178790 
C    -0.4481728    2.0941457    0.2982056 
C     1.7450269    1.2424549   -1.0507965 
C     1.0839172    0.3789305   -0.2308157 
C    -0.0190558    0.8145173    0.4410988 
O    -0.1933617    4.2770142   -0.6829743 
H    -1.0321767    4.5192531   -0.1673508 
H    -0.5666806    0.1399182    1.0940639 
H     2.6168859    0.9122605   -1.6092499 
H     1.8316365    3.2122399   -1.8444971 
H    -1.3280227    2.4295823    0.8357311 
C     1.5610481   -1.0545514   -0.0848202 
C     0.9740199   -1.9909999   -1.1638039 
H     1.2998582   -1.4428943    0.9252746 
H     2.6706648   -1.0838488   -0.1442196 
C    -0.5408906   -2.1314194   -1.0341797 
O    -1.3439272   -2.3175524   -2.1548639 
O    -1.1268013   -2.1972486    0.2267617 
H    -2.1200210   -2.3618095    0.1159219 
N     1.4020875   -1.5206930   -2.4955587 
H     1.3703418   -3.0171179   -0.9884082 
H     2.4231719   -1.7149254   -2.6182353 
H     0.9112831   -2.0744239   -3.2395240 
