24
Energy =
C     0.0751651    1.3729425    1.1974829 
C     0.0537439    2.5258348    0.4892059 
C     0.6107678    2.5736756   -0.7426820 
C     0.6638407    0.2646222    0.6798368 
C     1.2415519    0.3098164   -0.5528353 
C     1.2043580    1.4708675   -1.2655481 
O    -0.5518938    3.6589935    1.0233251 
H     0.1106284    4.1958287    1.5720694 
H     1.6361193    1.5199315   -2.2633750 
H     0.6657403   -0.6570963    1.2564376 
H    -0.3903047    1.3453260    2.1768137 
H     0.5695067    3.4977443   -1.3098683 
C     1.8736753   -0.9322856   -1.1434909 
C     0.8432227   -1.7916326   -1.9137629 
H     2.3251165   -1.5367793   -0.3251051 
H     2.7107005   -0.6541748   -1.8247797 
C     0.2699342   -1.0215970   -3.1116574 
O     1.0634401   -0.8203843   -4.2353051 
O    -1.0014845   -0.4476901   -3.0817618 
H    -1.4698339   -0.5931459   -2.2003839 
N     1.4390742   -3.0944146   -2.3007224 
H    -0.0058541   -2.0132906   -1.2298269 
H     1.4720116   -3.2082039   -3.3442382 
H     2.4300146   -3.1992788   -1.9787445 
