24
Energy =
C     0.7298928    2.4887496   -0.1524267 
C    -0.1297397    2.2574868    0.8666333 
C    -0.3793991    0.9896412    1.2667341 
C     1.3572239    1.4521774   -0.7643903 
C     1.1229582    0.1739181   -0.3563115 
C     0.2409156   -0.0523370    0.6570593 
O    -0.7651010    3.3227235    1.4980116 
H    -0.2153804    3.6551931    2.2823495 
H     0.0229208   -1.0670668    0.9803434 
H     2.0356941    1.6533987   -1.5901711 
H     0.9030747    3.5085635   -0.4784974 
H    -1.0857232    0.8174311    2.0716649 
C     1.7979893   -0.9868436   -1.0536631 
C     0.9401012   -1.5351044   -2.2109624 
H     1.9781179   -1.8084134   -0.3233790 
H     2.8055489   -0.6880275   -1.4150771 
C     0.7040277   -0.5116253   -3.3263047 
O    -0.5978093   -0.1654188   -3.6613321 
O     1.7544466    0.0782139   -4.0311897 
H     2.6509385   -0.2569714   -3.7207897 
N     1.5530883   -2.7824581   -2.6994857 
H    -0.0708221   -1.7781168   -1.8043575 
H     0.9074314   -3.2313477   -3.3937438 
H     2.4464272   -2.5823235   -3.2077406 
