24
Energy =
C    -0.7307730    1.6653994    0.6694889 
C    -0.4881449    2.7152900   -0.1591004 
C     0.5070697    2.6310186   -1.0700985 
C     0.0261608    0.5406261    0.5853080 
C     1.0319892    0.4542210   -0.3290101 
C     1.2649083    1.5087367   -1.1598028 
O    -1.2453844    3.8888415   -0.0963600 
H    -1.9852929    3.8652600    0.5969660 
H     2.0533792    1.4587799   -1.9053333 
H    -0.1972507   -0.3058027    1.2336135 
H    -1.5366696    1.7190464    1.3941560 
H     0.6854537    3.4731342   -1.7298274 
C     1.8837655   -0.7993043   -0.4274135 
C     1.2899121   -1.8830048   -1.3574111 
H     2.0476089   -1.2263413    0.5873061 
H     2.8948722   -0.5283010   -0.8024411 
C     0.1440051   -2.6410424   -0.6975391 
O     0.2679727   -4.0019797   -0.4613833 
O    -1.0260893   -2.0016670   -0.3113494 
H    -1.6484171   -1.9761157   -1.1072120 
N     0.9041109   -1.2926120   -2.6525924 
H     2.0834174   -2.6478125   -1.5290923 
H     1.7661124   -0.9657202   -3.1481190 
H     0.4884507   -2.0397758   -3.2593084 
