24
Energy =
C    -1.1777359    1.5599249   -1.2293403 
C    -1.5311629    1.4772420    0.0810360 
C    -0.6465241    0.9940560    0.9824273 
C     0.0588921    1.1657484   -1.6287765 
C     0.9528227    0.6860765   -0.7198744 
C     0.5891370    0.5942296    0.5885366 
O    -2.7943474    1.8791526    0.5274678 
H    -3.4112369    2.2036465   -0.2095302 
H     1.2804209    0.1991383    1.3282077 
H     0.3238379    1.2150051   -2.6859082 
H    -1.8868533    1.9339223   -1.9602707 
H    -0.9441520    0.9266842    2.0231317 
C     2.3217722    0.2209492   -1.1687878 
C     2.2828123   -1.2257277   -1.7187400 
H     3.0358294    0.2759813   -0.3167688 
H     2.7200374    0.9170097   -1.9400296 
C     1.4141959   -1.3487186   -2.9678367 
O     0.2652013   -2.1266367   -2.9185217 
O     1.6726666   -0.6128268   -4.1262117 
H     2.5795252   -0.1745522   -4.0990052 
N     3.6551806   -1.7084268   -1.9558650 
H     1.7920881   -1.8914099   -0.9675361 
H     4.1771113   -1.0515909   -2.5827899 
H     4.1775820   -1.7599583   -1.0498285 
