24
Energy =
C    -0.3116806    2.3394316   -1.8093429 
C    -1.1184994    2.4202689   -0.7275362 
C    -0.8536597    1.6586448    0.3669549 
C     0.7568860    1.5046283   -1.8089197 
C     1.0298176    0.7397036   -0.7147481 
C     0.2162643    0.8236970    0.3745905 
O    -2.2098345    3.2932996   -0.7669376 
H    -2.7805669    3.2834027    0.0715576 
H     0.4110272    0.2159749    1.2550673 
H     1.3887948    1.4521889   -2.6912728 
H    -0.5332240    2.9495182   -2.6780989 
H    -1.4990952    1.7130136    1.2367727 
C     2.2164863   -0.2043448   -0.7147154 
C     1.8549709   -1.6502777   -1.1374515 
H     2.6748696   -0.2250397    0.3001074 
H     3.0101434    0.1842502   -1.3904720 
C     0.9277134   -2.3310521   -0.1399738 
O    -0.4557480   -2.2126514   -0.2456554 
O     1.4654591   -3.0065810    0.9495313 
H     0.7102977   -3.3954475    1.4992871 
N     1.3295974   -1.6921887   -2.5147028 
H     2.7918189   -2.2513258   -1.1114626 
H     0.3841932   -1.2407326   -2.5546171 
H     1.9646866   -1.1667314   -3.1595068 
