24
Energy =
C     0.6193729    2.5154052   -0.2768332 
C    -0.5267235    2.3356367    0.4192613 
C    -0.9205905    1.0884256    0.7648108 
C     1.3742674    1.4460557   -0.6354701 
C     0.9861101    0.1871020   -0.2888119 
C    -0.1703197    0.0134895    0.4096909 
O    -1.2990885    3.4329442    0.7856594 
H    -1.9899475    3.6371931    0.0714609 
H    -0.5006412   -0.9854128    0.6823273 
H     2.2844213    1.6055225   -1.2103299 
H     0.9238664    3.5208427   -0.5469383 
H    -1.8407327    0.9616954    1.3259684 
C     1.8089665   -1.0101234   -0.7139473 
C     1.2739266   -1.6524889   -2.0040725 
H     1.8195695   -1.7699351    0.0977456 
H     2.8739453   -0.7213317   -0.8721665 
C     1.3119162   -0.6729304   -3.1706499 
O     2.5120244   -0.1049945   -3.5852145 
O     0.1346233   -0.3280137   -3.8212512 
H     0.3514915    0.3233727   -4.5649712 
N     2.0625698   -2.8776510   -2.2515261 
H     0.1972483   -1.9117890   -1.8679188 
H     1.4597347   -3.7191428   -2.0949719 
H     2.3825863   -2.9282240   -3.2500533 
