24
Energy =
C    -0.3066257    1.4912380    1.0464039 
C    -0.2274720    2.5707161    0.2346340 
C     0.5308904    2.5218420   -0.8844963 
C     0.3675309    0.3543087    0.7374436 
C     1.1320947    0.2970101   -0.3888647 
C     1.2082456    1.3886103   -1.2002853 
O    -0.9196956    3.7343619    0.5544941 
H    -1.8531432    3.7172635    0.1585441 
H     1.8136362    1.3634312   -2.1028451 
H     0.2906379   -0.5059095    1.3976018 
H    -0.9105546    1.5483892    1.9455215 
H     0.5933801    3.3979724   -1.5214983 
C     1.8763681   -0.9700110   -0.7475412 
C     1.1560836   -1.7792721   -1.8542469 
H     2.0194218   -1.6127535    0.1518494 
H     2.9012023   -0.6946250   -1.0849935 
C     2.0450569   -2.8974457   -2.3726415 
O     2.3443745   -3.9894615   -1.5675857 
O     2.6597010   -2.7837204   -3.6137302 
H     3.4392731   -2.1473007   -3.5426919 
N    -0.1286838   -2.3077345   -1.3610317 
H     0.9637308   -1.1282974   -2.7382889 
H     0.0267863   -2.8958520   -0.5068028 
H    -0.7694145   -1.5222062   -1.1011298 
