24
Energy =
C     0.6656060    2.4884361   -1.7291961 
C    -0.3225421    2.7650787   -0.8375755 
C    -0.6016914    1.8810605    0.1480022 
C     1.3679413    1.3353932   -1.6314307 
C     1.0902022    0.4434352   -0.6375216 
C     0.0985322    0.7231165    0.2523496 
O    -1.0654313    3.9494485   -0.9087897 
H    -0.8103393    4.5467276   -1.6875555 
H    -0.1472454    0.0150911    1.0413572 
H     2.1550424    1.1338223   -2.3576937 
H     0.8985926    3.1837670   -2.5257076 
H    -1.3973585    2.1104982    0.8482587 
C     1.8581873   -0.8581922   -0.5422001 
C     1.0879938   -2.0602517   -1.1479788 
H     2.1037594   -1.0634726    0.5246369 
H     2.8371301   -0.7482746   -1.0583433 
C    -0.0239822   -2.5487695   -0.2238427 
O     0.3186095   -3.3372524    0.8619990 
O    -1.3485530   -2.1724287   -0.3599883 
H    -1.3847120   -1.6804649   -1.2473861 
N     0.6493867   -1.7797155   -2.5335272 
H     1.7803066   -2.9321104   -1.1748170 
H    -0.1461366   -1.1084970   -2.5406232 
H     1.4297783   -1.3168114   -3.0830523 
