24
Energy =
C     0.2682439    2.5167744   -1.5786133 
C    -0.1926315    2.7138794   -0.3225386 
C     0.0246663    1.7809613    0.6319794 
C     0.9552299    1.3873676   -1.8840092 
C     1.1799356    0.4403352   -0.9286565 
C     0.7127533    0.6492545    0.3353195 
O    -0.8943025    3.8748670   -0.0131383 
H    -0.2601123    4.6119319    0.2742706 
H     0.8804169   -0.0894254    1.1157449 
H     1.3225560    1.2504382   -2.8972856 
H     0.0791068    3.2688621   -2.3363248 
H    -0.3600116    1.9453851    1.6330590 
C     1.9483634   -0.8259790   -1.2628265 
C     1.0415042   -2.0589067   -1.5170441 
H     2.6476792   -1.0553178   -0.4267463 
H     2.5927888   -0.6636727   -2.1551261 
C     0.2165700   -2.4269609   -0.2866841 
O     0.8387281   -3.0315111    0.7992178 
O    -1.1336615   -2.1066886   -0.1975661 
H    -1.4866051   -2.4184463    0.6981491 
N     0.2500237   -1.9174600   -2.7650914 
H     1.7167964   -2.9331675   -1.6568384 
H    -0.7767582   -2.0302390   -2.5761362 
H     0.3472089   -0.9696204   -3.1920516 
