24
Energy =
C     1.7725804    1.8490048    0.6069013 
C     0.8830610    2.7483654    0.1081721 
C     0.1750778    2.4426765   -1.0019354 
C     1.9530456    0.6537439   -0.0103794 
C     1.2495681    0.3490066   -1.1364174 
C     0.3526008    1.2492023   -1.6236659 
O     0.6764686    3.9911617    0.7147650 
H     1.2236634    4.1331580    1.5569041 
H    -0.2382047    1.0069680   -2.5023935 
H     2.6563169   -0.0612965    0.4104398 
H     2.3377841    2.0806651    1.5032190 
H    -0.5410278    3.1645760   -1.3789879 
C     1.4391629   -0.9921833   -1.8198485 
C     0.2810883   -1.9708515   -1.5372681 
H     2.3932460   -1.4606438   -1.4871689 
H     1.5385957   -0.8384874   -2.9161445 
C     0.0533241   -2.1481661   -0.0398785 
O    -1.1327473   -1.7502184    0.5682605 
O     1.0444564   -2.7342109    0.7364678 
H     0.7220617   -2.7691310    1.6951829 
N    -0.9192636   -1.5202037   -2.2714518 
H     0.5814441   -2.9834757   -1.8942159 
H    -0.8454274   -1.8274514   -3.2694251 
H    -1.7712253   -1.9948335   -1.8822066 
