24
Energy =
C     0.7428735    2.0629157    0.9795119 
C    -0.2698824    2.6333236    0.2866972 
C    -0.5688047    2.1963497   -0.9582620 
C     1.4564748    1.0463155    0.4315549 
C     1.1606940    0.6004066   -0.8210141 
C     0.1403968    1.1803465   -1.5126613 
O    -0.9998537    3.6743373    0.8516429 
H    -1.7862660    3.3155773    1.3817501 
H    -0.1097381    0.8378580   -2.5138120 
H     2.2650696    0.5924416    0.9993627 
H     0.9779194    2.4307928    1.9723770 
H    -1.3763246    2.6689912   -1.5074571 
C     1.9428354   -0.5406372   -1.4332341 
C     1.1949808   -1.8874094   -1.3167587 
H     2.9445957   -0.6287145   -0.9543579 
H     2.1372785   -0.3029180   -2.5050281 
C     1.8405303   -2.9397797   -2.2169451 
O     1.2217878   -3.2754013   -3.4149652 
O     3.0533972   -3.5455048   -1.8910871 
H     3.3904401   -3.2191551   -0.9962597 
N     1.1709992   -2.3140284    0.0953150 
H     0.1522295   -1.7676674   -1.6968711 
H     0.5595614   -1.6623823    0.6418710 
H     0.7113943   -3.2539939    0.1657794 
