24
Energy =
C     0.0982582    2.2126809    0.0645940 
C    -1.0553545    1.6725853    0.5206804 
C    -1.2063029    0.3287404    0.5561881 
C     1.1045054    1.4093062   -0.3643290 
C     0.9611359    0.0550303   -0.3305338 
C    -0.2040917   -0.4811380    0.1292842 
O    -2.0852956    2.4980818    0.9597999 
H    -2.7172873    2.7178945    0.1974157 
H    -0.3393046   -1.5590042    0.1558671 
H     2.0209728    1.8590792   -0.7414531 
H     0.2077022    3.2917686    0.0437020 
H    -2.1347073   -0.0903844    0.9295899 
C     2.0704312   -0.8448431   -0.8324155 
C     1.8329597   -1.2992178   -2.2848618 
H     2.1561518   -1.7340671   -0.1712054 
H     3.0562214   -0.3270365   -0.7742352 
C     1.8364977   -0.1227696   -3.2533568 
O     2.7962144    0.8807619   -3.1664406 
O     0.8857018   -0.0616021   -4.2627888 
H     1.0564722    0.7702428   -4.8133828 
N     2.8633405   -2.2937317   -2.6315764 
H     0.8219536   -1.7628399   -2.3692737 
H     2.6470209   -3.1966597   -2.1487294 
H     2.8173472   -2.4958975   -3.6605547 
