24
Energy =
C     0.0382754    1.4301526    1.2385253 
C    -0.0692074    2.5151493    0.4374038 
C     0.4386528    2.4841065   -0.8161936 
C     0.6637280    0.3113147    0.7911625 
C     1.1879962    0.2770277   -0.4657344 
C     1.0653308    1.3689768   -1.2707693 
O    -0.7128855    3.6589415    0.8985668 
H    -0.0568359    4.2749434    1.3658967 
H     1.4637896    1.3559981   -2.2825214 
H     0.7326110   -0.5599603    1.4389049 
H    -0.3883446    1.4646253    2.2352205 
H     0.3337450    3.3561720   -1.4532234 
C     1.8661796   -0.9741711   -0.9780847 
C     0.9038994   -1.8646676   -1.7907838 
H     2.2822481   -1.5707708   -0.1345252 
H     2.7395329   -0.6866448   -1.6063383 
C     1.6552281   -2.9723440   -2.5178217 
O     2.9455130   -3.3378464   -2.1450284 
O     1.0374809   -3.6427486   -3.5651984 
H     1.6704283   -4.3493242   -3.9186888 
N    -0.1265929   -2.4129345   -0.8884848 
H     0.4254057   -1.2571524   -2.5949045 
H    -0.8298192   -1.6643103   -0.6863041 
H    -0.6607053   -3.1620036   -1.3958199 
