24
Energy =
C     0.4127172    2.0064352   -2.3261969 
C     0.5068468    2.8972573   -1.3124879 
C     1.0194011    2.5145735   -0.1205946 
C     0.8234566    0.7251073   -2.1485940 
C     1.3344350    0.3295300   -0.9487665 
C     1.4322113    1.2348517    0.0652939 
O     0.0853126    4.2100802   -1.4983634 
H    -0.8983337    4.3059186   -1.2706525 
H     1.8411368    0.9447421    1.0297101 
H     0.7419154    0.0205614   -2.9726594 
H     0.0100148    2.3304521   -3.2796526 
H     1.0989138    3.2415956    0.6809129 
C     1.7863048   -1.1019089   -0.7509401 
C     0.5937410   -2.0830187   -0.6308146 
H     2.4333503   -1.2031015    0.1501050 
H     2.4273218   -1.3906378   -1.6151377 
C     1.0855583   -3.5170110   -0.7559126 
O     0.8378939   -4.2396880   -1.9166673 
O     1.8454415   -4.0912820    0.2560733 
H     2.0844853   -5.0381019   -0.0105401 
N    -0.1838640   -1.8475091    0.6113618 
H    -0.0895452   -1.9380316   -1.4987637 
H    -0.1706720   -2.6939556    1.2318816 
H     0.2136599   -1.0738071    1.1912407 
