24
Energy =
C    -0.9475602    1.6839906    0.3368804 
C    -0.8934711    2.5128719   -0.7391587 
C     0.0858672    2.3529113   -1.6573804 
C    -0.0229175    0.7015930    0.4889002 
C     0.9649721    0.5381505   -0.4352417 
C     1.0116170    1.3716084   -1.5117791 
O    -1.8296756    3.5341344   -0.9259720 
H    -2.5372265    3.5842985   -0.2006749 
H     1.7870037    1.2538305   -2.2649562 
H    -0.0825382    0.0455772    1.3550504 
H    -1.7318629    1.8029383    1.0771336 
H     0.1166277    3.0200056   -2.5122075 
C     1.9930836   -0.5679542   -0.2830594 
C     1.5730598   -1.8887922   -0.9670256 
H     2.1991626   -0.7524825    0.7957393 
H     2.9611892   -0.2368128   -0.7197105 
C     0.3889713   -2.5702496   -0.2634898 
O     0.2042004   -2.3848067    1.1003226 
O    -0.4683541   -3.4512318   -0.9216703 
H    -0.1517432   -3.6879651   -1.8465252 
N     1.3521681   -1.6297258   -2.4036730 
H     2.4250760   -2.5974036   -0.8545139 
H     1.4950826   -2.5100127   -2.9510815 
H     0.3644032   -1.3102854   -2.5612376 
