24
Energy =
C     0.9902930    1.8448255    0.8763539 
C     1.1631837    2.8108918   -0.0553770 
C     1.4749470    2.4758572   -1.3283402 
C     1.1225642    0.5373223    0.5362337 
C     1.4389500    0.1923691   -0.7429981 
C     1.6092174    1.1711231   -1.6759265 
O     1.0260279    4.1497164    0.2970945 
H     0.0615180    4.4479557    0.1970798 
H     1.8437739    0.9143613   -2.7065676 
H     0.9715833   -0.2288773    1.2923295 
H     0.7451395    2.1289576    1.8940087 
H     1.6116088    3.2590543   -2.0664388 
C     1.5539122   -1.2656845   -1.1334953 
C     0.1786239   -1.8772449   -1.4928532 
H     2.0046652   -1.8367001   -0.2914624 
H     2.2457466   -1.3814211   -1.9991066 
C    -0.4610537   -1.1516678   -2.6711437 
O    -1.5341669   -0.2930645   -2.4642066 
O     0.0486705   -1.3052579   -3.9551310 
H    -0.5047485   -0.7479716   -4.5935673 
N     0.3005413   -3.3407041   -1.7129983 
H    -0.5184836   -1.7161107   -0.6382756 
H     0.0042837   -3.5982802   -2.6874651 
H     1.2903608   -3.6730722   -1.6369124 
