24
Energy =
C     0.6929184    2.6476410   -0.7429811 
C    -0.4335975    2.5872398    0.0021675 
C    -0.7900059    1.4131689    0.5862355 
C     1.4653272    1.5448717   -0.9139121 
C     1.1112244    0.3628692   -0.3367743 
C    -0.0198261    0.3076213    0.4220871 
O    -1.2035794    3.7448545    0.1525859 
H    -2.0396534    3.6190679    0.7126935 
H    -0.3209508   -0.6246402    0.8964780 
H     2.3676175    1.6190316   -1.5147209 
H     0.9680366    3.5914297   -1.2018552 
H    -1.6929371    1.3562876    1.1840989 
C     1.9692778   -0.8754068   -0.5284659 
C     1.4173738   -1.8626457   -1.5906695 
H     2.0612438   -1.4040762    0.4481313 
H     3.0073943   -0.5890786   -0.8080087 
C     0.0225493   -2.3738270   -1.2292441 
O    -0.0953207   -3.3415678   -0.2397297 
O    -1.1412478   -1.8261908   -1.7649999 
H    -0.9124675   -1.1442255   -2.4731573 
N     1.4831730   -1.2919448   -2.9571089 
H     2.0548078   -2.7790928   -1.5465248 
H     1.7840432   -0.2897955   -2.9656266 
H     2.1907770   -1.8143365   -3.5281114 
