24
Energy =
C     0.0019191    1.4648974    1.1297999 
C     0.0341871    2.5904881    0.3670232 
C     0.6456715    2.5631739   -0.8390035 
C     0.5818795    0.3216820    0.6842195 
C     1.2069915    0.2965032   -0.5248172 
C     1.2300640    1.4240201   -1.2880733 
O    -0.5537062    3.7845647    0.7970142 
H    -0.9954246    3.7242821    1.7080104 
H     1.7052436    1.4191213   -2.2670344 
H     0.5415143   -0.5723933    1.3017969 
H    -0.4901150    1.4760684    2.0964399 
H     0.6563685    3.4642741   -1.4426271 
C     1.8292395   -0.9856491   -1.0341744 
C     0.8165705   -1.8587966   -1.7913657 
H     2.2449102   -1.5663996   -0.1807517 
H     2.6966211   -0.7674516   -1.6990596 
C     0.3132590   -1.1465395   -3.0563406 
O     1.1329034   -1.0710982   -4.1765119 
O    -0.9244756   -0.5027584   -3.0925774 
H    -1.4062865   -0.5499724   -2.2073314 
N     1.4757191   -3.1501164   -2.0757543 
H    -0.0627406   -2.0369898   -1.1296533 
H     1.0147124   -3.9130014   -1.5259806 
H     1.3892830   -3.4178820   -3.0871969 
