24
Energy =
C     0.2442614    1.6172693    1.2409761 
C    -0.3044011    2.5230207    0.3988374 
C    -0.1265622    2.4003732   -0.9365769 
C     0.9810176    0.5882008    0.7502540 
C     1.1724929    0.4634517   -0.5927635 
C     0.6094374    1.3742908   -1.4347986 
O    -1.0610680    3.5747508    0.9053125 
H    -0.4710091    4.3722633    1.1158406 
H     0.7427494    1.2850458   -2.5103068 
H     1.4119503   -0.1343374    1.4380501 
H     0.0822172    1.7213585    2.3083052 
H    -0.5820285    3.1265923   -1.6018515 
C     1.9739773   -0.6919527   -1.1499992 
C     1.0627386   -1.8199981   -1.6929217 
H     2.6678566   -1.0969091   -0.3793754 
H     2.6254189   -0.3106202   -1.9704989 
C     1.8671474   -2.8625587   -2.4666434 
O     1.8106448   -2.8617864   -3.8553690 
O     2.7192159   -3.7673588   -1.8321738 
H     2.6635571   -3.6872125   -0.8295555 
N     0.2719671   -2.4288363   -0.6053132 
H     0.3640108   -1.3891405   -2.4490237 
H     0.8595049   -2.5797597    0.2479119 
H    -0.4979353   -1.7738200   -0.3283565 
