24
Energy =
C     0.7179033    2.0022931    0.8489933 
C    -0.4144671    2.4717513    0.2759460 
C    -0.8336506    1.9679329   -0.9074389 
C     1.4415209    1.0316341    0.2347699 
C     1.0312444    0.5263591   -0.9620077 
C    -0.1157016    0.9969520   -1.5273929 
O    -1.1550044    3.4643181    0.9093092 
H    -0.8322871    4.3849241    0.6319954 
H    -0.4649096    0.5966361   -2.4763344 
H     2.3446114    0.6556912    0.7098294 
H     1.0331856    2.4054798    1.8053957 
H    -1.7502247    2.3439686   -1.3501258 
C     1.8211042   -0.5700190   -1.6427712 
C     1.2266978   -1.9674992   -1.3690310 
H     2.8839748   -0.5481288   -1.3111219 
H     1.8370705   -0.3723638   -2.7394675 
C     1.8392488   -2.9953241   -2.3163677 
O     1.1115984   -3.4087927   -3.4246985 
O     3.1272274   -3.4952782   -2.1298888 
H     3.5456593   -3.1203805   -1.2904314 
N     1.4421148   -2.3250563    0.0461660 
H     0.1340385   -1.9588755   -1.5978534 
H     0.8164646   -1.7370002    0.6460668 
H     1.1284738   -3.3137161    0.2061988 
