24
Energy =
C    -0.7093018    1.6724080    0.6095205 
C    -0.4522979    2.7782654   -0.1372816 
C     0.5723215    2.7649928   -1.0186182 
C     0.0595990    0.5613259    0.4715039 
C     1.0877513    0.5409163   -0.4222600 
C     1.3420140    1.6564550   -1.1633797 
O    -1.2220790    3.9394428   -0.0174335 
H    -1.9829319    3.8620474    0.6488073 
H     2.1605685    1.6720736   -1.8778817 
H    -0.1683363   -0.3189453    1.0696374 
H    -1.5334648    1.6719817    1.3153147 
H     0.7670349    3.6549416   -1.6072538 
C     1.9617424   -0.6937157   -0.5756750 
C     1.3006161   -1.8730510   -1.3439689 
H     2.2734281   -1.0416290    0.4352302 
H     2.9072198   -0.4278800   -1.0982012 
C     0.2148854   -2.5645279   -0.5320609 
O     0.5215579   -3.7095550    0.1897692 
O    -1.0603394   -2.0262989   -0.4168314 
H    -1.6276678   -2.4076099   -1.1611024 
N     0.8151668   -1.4767274   -2.6853764 
H     2.0883256   -2.6544783   -1.4616575 
H     0.9735725   -0.4641694   -2.8901098 
H     1.3270259   -2.0148358   -3.4235011 
