24
Energy =
C     0.6522028    2.7222505   -0.9222629 
C    -0.6427348    2.7473700   -0.5083750 
C    -1.1669127    1.6664996    0.1118225 
C     1.4146270    1.6194426   -0.7108432 
C     0.8904721    0.5314300   -0.0815848 
C    -0.4091663    0.5614405    0.3257088 
O    -1.4548874    3.8684698   -0.7065129 
H    -0.9947237    4.6286711   -1.1952320 
H    -0.8516823   -0.2995410    0.8199832 
H     2.4446229    1.6087543   -1.0571985 
H     1.0801117    3.5817290   -1.4267743 
H    -2.2027825    1.6965643    0.4313030 
C     1.7389377   -0.7058492    0.1431153 
C     1.7394299   -1.6576586   -1.0748245 
H     1.3775729   -1.2560801    1.0414924 
H     2.7838377   -0.4031179    0.3730289 
C     0.3459965   -2.2097524   -1.3720362 
O    -0.0847995   -2.4125729   -2.6798791 
O    -0.4699715   -2.6288483   -0.3246828 
H    -1.3243084   -3.0116080   -0.7101223 
N     2.3479334   -0.9658427   -2.2276137 
H     2.3496154   -2.5530436   -0.8167474 
H     3.3689030   -0.8238544   -2.0454061 
H     2.2865993   -1.5766247   -3.0780555 
