24
Energy =
C     0.1941497    2.4469488   -0.1734045 
C     0.5041216    2.2249560    1.1334933 
C     1.2310127    1.1360366    1.4721296 
C     0.6241508    1.5778665   -1.1361723 
C     1.3604476    0.4889398   -0.7892960 
C     1.6538336    0.2669960    0.5200932 
O     0.0847470    3.0946211    2.1452174 
H    -0.4681044    3.8864188    1.8363868 
H     2.2242049   -0.6107369    0.8163665 
H     0.3567542    1.7138499   -2.2073967 
H    -0.4075045    3.3181715   -0.4260658 
H     1.4660148    0.9621134    2.5175071 
C     1.8118807   -0.4818311   -1.8589557 
C     0.6449365   -1.3807394   -2.3661785 
H     2.6448647   -1.1153348   -1.4748650 
H     2.2683680    0.0886043   -2.7032066 
C     0.3898719   -1.2017887   -3.8701447 
O     0.5962387   -2.2649873   -4.7541416 
O    -0.0254263    0.0559432   -4.3582370 
H    -0.1469320    0.7934335   -3.6531094 
N     0.9133689   -2.7797576   -1.9730214 
H    -0.3202418   -1.0564718   -1.9094009 
H     0.0813213   -3.3749541   -2.2069478 
H     1.7090806   -3.1630175   -2.5403525 
