24
Energy =
C     0.6967180    2.5253954   -0.1807013 
C    -0.4616838    2.3818028    0.5035774 
C    -0.9407155    1.1453051    0.7709087 
C     1.3883772    1.4309948   -0.5887365 
C     0.9188493    0.1824655   -0.3119256 
C    -0.2559867    0.0458196    0.3641169 
O    -1.1656999    3.5054396    0.9255834 
H    -0.8601710    3.7933234    1.8483677 
H    -0.6562174   -0.9418478    0.5792244 
H     2.3133583    1.5628405   -1.1456296 
H     1.0595787    3.5225524   -0.4045217 
H    -1.8790761    1.0449702    1.3060190 
C     1.6727864   -1.0421668   -0.7830554 
C     1.1472769   -1.5647374   -2.1301229 
H     1.5880760   -1.8468352   -0.0200440 
H     2.7615780   -0.8259366   -0.8780629 
C     1.3907127   -0.5652764   -3.2568777 
O     0.3862963   -0.2991873   -4.1791620 
O     2.6278974    0.0515985   -3.4070029 
H     2.5935355    0.6464769   -4.2250089 
N     1.7853082   -2.8743376   -2.3792661 
H     0.0397268   -1.6878979   -2.0620266 
H     1.0597066   -3.6283645   -2.3398925 
H     2.2027284   -2.9198707   -3.3410677 
