24
Energy =
C     0.0134237    2.3397144   -1.7657534 
C    -0.5705938    2.6386202   -0.5745610 
C    -0.3111966    1.8708967    0.5081996 
C     0.8536694    1.2786487   -1.8663486 
C     1.1234924    0.5114629   -0.7738535 
C     0.5291399    0.8096192    0.4135858 
O    -1.4409369    3.7249251   -0.4367585 
H    -1.5875268    4.2484086   -1.2929061 
H     0.7150291    0.1953788    1.2910053 
H     1.3067472    1.0472679   -2.8272170 
H    -0.1926775    2.9464593   -2.6407971 
H    -0.7892544    2.1146016    1.4505627 
C     2.0419909   -0.6849996   -0.8890508 
C     1.2629952   -1.9587571   -1.2708713 
H     2.5829223   -0.8510003    0.0699572 
H     2.8284022   -0.4776327   -1.6501970 
C     2.2126063   -3.0698074   -1.6815714 
O     3.0053270   -3.7116008   -0.7371472 
O     2.3283856   -3.4197383   -3.0190854 
H     3.0081304   -4.1655585   -3.1028548 
N     0.3899372   -2.3525634   -0.1486293 
H     0.6402306   -1.7488648   -2.1730637 
H    -0.1952287   -3.1714591   -0.4410185 
H     0.9809632   -2.6897695    0.6500992 
