24
Energy =
C    -0.4969276    1.0764534    1.1656061 
C    -0.5367139    2.3039173    0.5814860 
C     0.2344023    2.5539436   -0.5008874 
C     0.3142074    0.1093086    0.6668175 
C     1.0975648    0.3631747   -0.4174316 
C     1.0483360    1.5909703   -1.0034048 
O    -1.3595106    3.3233606    1.0715223 
H    -1.9143103    3.0543938    1.8765774 
H     1.6528598    1.8086346   -1.8815080 
H     0.3306869   -0.8689602    1.1408925 
H    -1.1152687    0.8651680    2.0312308 
H     0.1874498    3.5346463   -0.9617496 
C     1.9863043   -0.7220950   -0.9854691 
C     1.2285755   -1.6439844   -1.9551024 
H     2.4062346   -1.3310554   -0.1547987 
H     2.8634402   -0.2825525   -1.5134225 
C     0.7514508   -0.8929317   -3.1956482 
O    -0.5242378   -1.1202733   -3.6974387 
O     1.5956531   -0.0135228   -3.8657760 
H     1.1087988    0.3465776   -4.6767733 
N     2.1194423   -2.7784972   -2.2781078 
H     0.3062676   -2.0170829   -1.4488766 
H     1.7220074   -3.6599816   -1.8759225 
H     2.1853499   -2.9316926   -3.3142003 
