24
Energy =
C     0.6016722    2.4413512    0.2596462 
C    -0.6278701    2.1235825    0.7452059 
C    -1.0116914    0.8283494    0.7962353 
C     1.4406850    1.4631987   -0.1658753 
C     1.0613038    0.1570929   -0.1035847 
C    -0.1754733   -0.1545225    0.3745503 
O    -1.5150496    3.1057633    1.1975901 
H    -1.1650609    4.0525073    1.0997002 
H    -0.5094525   -1.1889408    0.4049321 
H     2.4135955    1.7331275   -0.5676278 
H     0.9147433    3.4781613    0.2048211 
H    -2.0015294    0.5924094    1.1715829 
C     1.9930358   -0.9342482   -0.5942623 
C     1.7400760   -1.3073146   -2.0716527 
H     1.8887464   -1.8343519    0.0511058 
H     3.0498706   -0.6056409   -0.4798800 
C     0.3372168   -1.8961076   -2.2719491 
O    -0.6757249   -1.1392610   -2.8482560 
O     0.0298854   -3.1805915   -1.8190344 
H     0.8407774   -3.6569663   -1.4542122 
N     1.9957759   -0.1261834   -2.9149882 
H     2.4563700   -2.1113494   -2.3568991 
H     3.0240401    0.0670694   -2.9418047 
H     1.7018375   -0.3244124   -3.9016801 
