24
Energy =
C    -0.3746383    0.3698169    1.3951418 
C    -0.3949182    1.7113849    1.2197293 
C     0.3293341    2.2746904    0.2255199 
C     0.3816854   -0.4132519    0.5843559 
C     1.1280256    0.1487538   -0.4067999 
C     1.0903733    1.4987890   -0.5872733 
O    -1.1680280    2.5107114    2.0569984 
H    -0.6402631    2.7875975    2.8771899 
H     1.6576707    1.9642655   -1.3904552 
H     0.3812758   -1.4900759    0.7312809 
H    -0.9752427   -0.0692860    2.1840230 
H     0.2880675    3.3489183    0.0804838 
C     1.9545144   -0.7232393   -1.3267632 
C     1.1383084   -1.2137526   -2.5402563 
H     2.3418012   -1.5978031   -0.7585194 
H     2.8567294   -0.1720921   -1.6758977 
C     0.6960868   -0.0493252   -3.4281857 
O    -0.6417668    0.3235189   -3.4443628 
O     1.6050188    0.6693190   -4.2041994 
H     2.5261578    0.2587984   -4.1503062 
N     1.9533443   -2.1902880   -3.2849033 
H     0.2016211   -1.7032241   -2.1794120 
H     2.0777645   -3.0521434   -2.7022722 
H     1.4284731   -2.5003769   -4.1393314 
