24
Energy =
C     1.0648717    2.6232900   -0.6658265 
C     0.7525252    2.5251926    0.6468481 
C     0.7962337    1.3223887    1.2651623 
C     1.4167216    1.5161972   -1.3675143 
C     1.4650879    0.3020584   -0.7511804 
C     1.1470627    0.2103728    0.5698377 
O     0.3919865    3.6619537    1.3630213 
H    -0.6099106    3.8123051    1.3180430 
H     1.1756456   -0.7501815    1.0780181 
H     1.6561033    1.6083930   -2.4251621 
H     1.0319927    3.5945973   -1.1476323 
H     0.5514906    1.2589286    2.3203731 
C     1.8290224   -0.9392566   -1.5354136 
C     0.5807763   -1.6902957   -2.0403815 
H     2.4415430   -1.6142233   -0.8976642 
H     2.4740654   -0.6784052   -2.4074245 
C    -0.2678704   -0.8170986   -2.9569749 
O     0.2479662   -0.3171366   -4.1461474 
O    -1.5543322   -0.4579260   -2.5744978 
H    -1.4983674    0.2937711   -1.9029104 
N     1.0255797   -2.9200326   -2.7185407 
H    -0.0745395   -1.9523368   -1.1764739 
H     1.4258129   -3.5839625   -2.0144444 
H     0.1992938   -3.4047128   -3.1453969 
