24
Energy =
C     1.5591612    2.4411905   -0.8205179 
C     0.2795320    2.8479064   -0.6601132 
C    -0.6623068    1.9566558   -0.2527292 
C     1.9070049    1.1518338   -0.5788236 
C     0.9687391    0.2548114   -0.1672679 
C    -0.3197595    0.6664814   -0.0056795 
O    -0.0396093    4.1842643   -0.9210513 
H    -1.0198837    4.4098731   -0.7924973 
H    -1.0875636   -0.0383766    0.3082460 
H     2.9397415    0.8449396   -0.7207467 
H     2.3012636    3.1612839   -1.1484263 
H    -1.6920333    2.2733592   -0.1294328 
C     1.3523785   -1.1893382    0.0899386 
C     1.0012637   -2.1406434   -1.0818787 
H     0.8438777   -1.5448756    1.0155712 
H     2.4413087   -1.2659347    0.3037479 
C    -0.5010172   -2.2788105   -1.2766473 
O    -1.2283906   -3.1083106   -0.4347722 
O    -1.1825120   -1.5083142   -2.2091737 
H    -1.1634507   -1.9979966   -3.0916470 
N     1.6949686   -1.7447386   -2.3208209 
H     1.3484247   -3.1617960   -0.8038613 
H     1.3489686   -0.8074409   -2.6388457 
H     2.7211194   -1.6523257   -2.1363311 
