24
Energy =
C     0.8895052    2.5150531   -1.1535391 
C     0.8616147    2.7756536    0.1739467 
C     1.1048866    1.7857216    1.0633179 
C     1.1685686    1.2629073   -1.5973298 
C     1.4241169    0.2636141   -0.7078494 
C     1.3858584    0.5314617    0.6271959 
O     0.5715290    4.0595219    0.6249774 
H     1.4188739    4.6113343    0.7018076 
H     1.5724357   -0.2572343    1.3525858 
H     1.1843819    1.0667723   -2.6663479 
H     0.6807181    3.3159221   -1.8543680 
H     1.0674101    2.0045494    2.1252620 
C     1.7147593   -1.1367033   -1.1998045 
C     0.4239613   -1.9170739   -1.5367394 
H     2.2953776   -1.7087989   -0.4398613 
H     2.3739547   -1.0774802   -2.0957933 
C     0.7248768   -3.2009314   -2.3080259 
O     2.0256663   -3.6694428   -2.4488437 
O    -0.3074526   -3.9034693   -2.9164793 
H    -0.5643804   -3.4371768   -3.7727773 
N    -0.3025969   -2.2041173   -0.2875683 
H    -0.2131155   -1.2992911   -2.2104772 
H    -0.7264752   -1.3178467    0.0745441 
H    -1.1096188   -2.8420715   -0.4913809 
