24
Energy =
C    -0.2102912    1.6414347    0.9560908 
C    -0.4829394    2.5814432    0.0122869 
C     0.0501713    2.4610284   -1.2248495 
C     0.5949260    0.5903805    0.6583793 
C     1.1399159    0.4728317   -0.5835749 
C     0.8554251    1.4112027   -1.5281183 
O    -1.3079317    3.6771289    0.2852122 
H    -1.6718448    3.6951581    1.2318036 
H     1.2685314    1.3278786   -2.5302000 
H     0.7956079   -0.1626302    1.4161224 
H    -0.6387425    1.7250992    1.9488606 
H    -0.1797067    3.2156206   -1.9693716 
C     2.0180328   -0.7115872   -0.9239950 
C     1.1754232   -1.9157001   -1.3975895 
H     2.6295108   -0.9913827   -0.0378150 
H     2.7445085   -0.4194687   -1.7173825 
C     2.0220178   -2.9640728   -2.1167608 
O     1.6907870   -3.3177595   -3.4178074 
O     3.1118464   -3.5867714   -1.5085671 
H     3.2681076   -3.2472094   -0.5725241 
N     0.4306515   -2.4756441   -0.2532545 
H     0.4487617   -1.5557327   -2.1662741 
H    -0.2151590   -3.2289287   -0.5943478 
H     1.0901662   -2.9313722    0.4206881 
