24
Energy =
C     0.6377778    2.5614169   -0.8190372 
C    -0.1488012    2.6036730    0.2799359 
C    -0.2746535    1.4966486    1.0590251 
C     1.2994415    1.4233968   -1.1476875 
C     1.1757974    0.3104630   -0.3727823 
C     0.3847600    0.3550353    0.7352631 
O    -0.8140449    3.7952420    0.5856175 
H    -1.3856312    3.7509742    1.4220772 
H     0.2745641   -0.5202292    1.3702182 
H     1.9282161    1.4100729   -2.0342334 
H     0.7311792    3.4510694   -1.4326270 
H    -0.9027308    1.5237955    1.9424986 
C     1.9119069   -0.9600559   -0.7448635 
C     1.2826252   -1.6726139   -1.9715098 
H     1.9552979   -1.6681114    0.1136801 
H     2.9721031   -0.6985059   -0.9669769 
C     2.2011163   -2.7718901   -2.5154648 
O     3.1784715   -3.3332183   -1.7016706 
O     2.0443886   -3.2635526   -3.8102118 
H     1.2621568   -2.8329829   -4.2826688 
N    -0.0806953   -2.1729248   -1.6688734 
H     1.2011243   -0.9296915   -2.7962101 
H    -0.1484425   -3.2118257   -1.8015043 
H    -0.3592896   -1.9983373   -0.6759603 
