24
Energy =
C     0.1458487    0.9603197    1.4782821 
C     0.2967071    2.2772609    1.1792692 
C     0.9203511    2.6348984    0.0345509 
C     0.6195951    0.0102236    0.6322913 
C     1.2395109    0.3657649   -0.5273689 
C     1.3927494    1.6890881   -0.8166883 
O    -0.1747074    3.2814832    2.0304967 
H    -0.6536824    2.9344270    2.8545160 
H     1.8918312    2.0021930   -1.7298946 
H     0.4876629   -1.0383286    0.8839203 
H    -0.3564510    0.6638270    2.3928575 
H     1.0351811    3.6898267   -0.1908920 
C     1.7796397   -0.6924159   -1.4758841 
C     0.7014506   -1.4118193   -2.3355133 
H     2.3462819   -1.4501516   -0.8891346 
H     2.5256798   -0.2384539   -2.1653478 
C    -0.1634371   -2.3709765   -1.5267172 
O     0.1241769   -3.7320594   -1.5437677 
O    -1.1888826   -1.9125512   -0.7034466 
H    -1.6847970   -2.7051705   -0.3163947 
N    -0.1182512   -0.4666742   -3.1254735 
H     1.2564511   -2.0762928   -3.0388411 
H     0.1301434    0.5325221   -2.9516458 
H     0.0180308   -0.6419407   -4.1482573 
