24
Energy =
C    -1.0701557    1.3019775    0.4942150 
C    -0.9597018    2.3955174   -0.3058227 
C     0.1146194    2.5247277   -1.1165302 
C    -0.1051150    0.3476984    0.4822960 
C     0.9799294    0.4772435   -0.3311115 
C     1.0809772    1.5722903   -1.1349641 
O    -1.9334461    3.3989020   -0.3153562 
H    -2.7198139    3.2180356    0.2994037 
H     1.9307670    1.6879225   -1.8032563 
H    -0.2159306   -0.5281857    1.1163362 
H    -1.9334468    1.1848394    1.1404370 
H     0.1873668    3.3989313   -1.7545989 
C     2.0539547   -0.5937512   -0.3611813 
C     1.7351414   -1.7559010   -1.3265699 
H     2.2183303   -0.9911477    0.6648307 
H     3.0234293   -0.1414112   -0.6683838 
C     0.5567616   -2.5990728   -0.8571395 
O    -0.7494330   -2.2129225   -1.1266577 
O     0.7762095   -3.7290144   -0.0815553 
H     0.9628051   -3.4518912    0.8701875 
N     1.5686992   -1.2384883   -2.6973394 
H     2.6098899   -2.4470021   -1.3151511 
H     1.5427731   -2.0494692   -3.3603290 
H     0.6285560   -0.7792540   -2.7839470 
