24
Energy =
C    -0.3589153    2.0169874   -1.8686630 
C    -0.7458574    2.4644654   -0.6517975 
C    -0.2209130    1.9179161    0.4688272 
C     0.5627132    1.0255006   -1.9696007 
C     1.1035504    0.4773664   -0.8457228 
C     0.7012983    0.9262284    0.3763859 
O    -1.6928914    3.4785784   -0.5521681 
H    -1.2455084    4.3887012   -0.5535551 
H     1.1072249    0.4894785    1.2859878 
H     0.8603120    0.6723160   -2.9541754 
H    -0.7988105    2.4550923   -2.7581766 
H    -0.5504567    2.2761447    1.4385734 
C     2.1151991   -0.6417535   -0.9573835 
C     1.4443443   -2.0112279   -1.1884756 
H     2.7451561   -0.6993310   -0.0408345 
H     2.8165367   -0.4165193   -1.7928353 
C     2.4815231   -3.0429795   -1.6009504 
O     2.1887976   -3.9577291   -2.6015470 
O     3.7084907   -3.1147579   -0.9554053 
H     3.5832098   -3.6345408   -0.0986790 
N     0.7377428   -2.4238693    0.0376781 
H     0.7268254   -1.9385254   -2.0403279 
H    -0.1089038   -1.8195574    0.1609175 
H     0.3606982   -3.3936741   -0.0979426 
