24
Energy =
C    -0.6768173    1.6043723    0.6994327 
C    -0.4962828    2.7185542   -0.0448249 
C     0.4809713    2.7571805   -0.9785598 
C     0.1177692    0.5194754    0.5083116 
C     1.0977086    0.5434991   -0.4395994 
C     1.2770347    1.6758274   -1.1784841 
O    -1.3103946    3.8281338    0.1561177 
H    -2.1284019    3.7832097   -0.4415429 
H     2.0584398    1.7272846   -1.9323227 
H    -0.0513280   -0.3748119    1.1074860 
H    -1.4638875    1.5904114    1.4466033 
H     0.6223079    3.6620944   -1.5603613 
C     1.9949721   -0.6633158   -0.6576754 
C     1.3092372   -1.8416024   -1.4009727 
H     2.3680709   -1.0180890    0.3301983 
H     2.9037616   -0.3707981   -1.2290718 
C     0.2443133   -2.5137274   -0.5344833 
O     0.6393601   -3.4832811    0.3744550 
O    -1.0647777   -2.0453947   -0.4693354 
H    -1.5613599   -2.2775879   -1.3158805 
N     0.8684023   -1.4595104   -2.7660290 
H     2.0818124   -2.6355119   -1.5217644 
H    -0.1471996   -1.6523139   -2.9172392 
H     0.9947816   -0.4394141   -2.9560181 
