24
Energy =
C     0.1167544    2.4128154   -1.0784516 
C    -0.1028870    2.6094872    0.2418167 
C     0.3383116    1.7030515    1.1437582 
C     0.7717380    1.3024449   -1.5029475 
C     1.2130221    0.3805899   -0.6014538 
C     0.9940255    0.5897606    0.7273706 
O    -0.7742657    3.7490594    0.6733551 
H    -1.7748637    3.5861236    0.7014541 
H     1.3424003   -0.1277961    1.4657437 
H     0.9420326    1.1582232   -2.5671312 
H    -0.2325350    3.1538988   -1.7891482 
H     0.1652417    1.8784262    2.2004569 
C     1.9381347   -0.8603310   -1.0777961 
C     0.9804057   -1.8798766   -1.7431258 
H     2.4825399   -1.3572165   -0.2429319 
H     2.7217988   -0.5496017   -1.8067909 
C     1.7796331   -2.9321952   -2.4943479 
O     2.4333291   -3.9502524   -1.8091117 
O     1.9268843   -2.8353127   -3.8708602 
H     2.4937797   -3.6099710   -4.1927325 
N     0.0331014   -2.4633247   -0.7595931 
H     0.3881013   -1.3654558   -2.5345710 
H     0.1647671   -3.5010092   -0.6717366 
H     0.1724496   -2.0820089    0.2038919 
