24
Energy =
C    -0.4274171    2.2693465   -1.2846668 
C    -1.0903444    2.1925298   -0.1000725 
C    -0.6739807    1.3169927    0.8429864 
C     0.6502075    1.4751923   -1.5167675 
C     1.0732789    0.5988682   -0.5650817 
C     0.3992425    0.5183485    0.6144237 
O    -2.2004106    2.9980168    0.1726699 
H    -2.4679878    3.6180772   -0.5833277 
H     0.7123180   -0.1851746    1.3823336 
H     1.1691189    1.5285807   -2.4741104 
H    -0.7651869    2.9630058   -2.0466274 
H    -1.2129456    1.2587329    1.7833108 
C     2.2566990   -0.3061492   -0.8311872 
C     1.8378042   -1.6181050   -1.5217024 
H     2.7699415   -0.5494604    0.1259459 
H     3.0157936    0.2121534   -1.4601196 
C     1.3124510   -1.3958584   -2.9325336 
O     0.3229299   -2.2261873   -3.4396881 
O     1.8342966   -0.3915791   -3.7433629 
H     1.4365512   -0.4914902   -4.6710419 
N     2.9890759   -2.5361704   -1.5055264 
H     0.9962736   -2.0766059   -0.9503625 
H     2.6878215   -3.4604765   -1.8993429 
H     3.7234800   -2.1722481   -2.1604364 
