24
Energy =
C    -0.5815365    2.1164780   -0.3659224 
C    -0.6478288    1.8513965    0.9587000 
C     0.1420488    0.8946182    1.4971169 
C     0.2925737    1.4378360   -1.1545751 
C     1.1083200    0.4900173   -0.6169522 
C     1.0178511    0.2131922    0.7147136 
O    -1.5343450    2.5589210    1.7649753 
H    -1.0983034    3.4034066    2.1158593 
H     1.6314102   -0.5674085    1.1578351 
H     0.3197997    1.6285901   -2.2239566 
H    -1.2452291    2.8641138   -0.7864721 
H     0.0600586    0.6709760    2.5550457 
C     2.0863671   -0.2672446   -1.4966503 
C     1.3919074   -1.3100626   -2.4016314 
H     2.8396648   -0.7930589   -0.8681341 
H     2.6581907    0.4519184   -2.1202585 
C     0.5669137   -2.2998038   -1.5687929 
O     1.1611647   -2.9146544   -0.4764791 
O    -0.7432657   -2.6385274   -1.8688632 
H    -0.9272331   -2.1661999   -2.7495008 
N     0.6187897   -0.6128350   -3.4451657 
H     2.1704021   -1.9322824   -2.8974488 
H     1.2848395   -0.0794902   -4.0638670 
H     0.1975033   -1.3354946   -4.0648825 
