24
Energy =
C    -0.1157587    1.5362115    0.9889606 
C     0.4381516    2.6326952    0.4221665 
C     1.3816113    2.4952181   -0.5377111 
C     0.2807098    0.2960527    0.6045844 
C     1.2397944    0.1495532   -0.3514084 
C     1.7823530    1.2582383   -0.9281698 
O     0.0286329    3.9021038    0.8173644 
H     0.5872929    4.2319317    1.5966680 
H     2.5363262    1.1636398   -1.7055393 
H    -0.1821593   -0.5797417    1.0544773 
H    -0.8842821    1.6619734    1.7439703 
H     1.8070325    3.3827445   -0.9944181 
C     1.6643409   -1.2313808   -0.8005135 
C     0.7575943   -1.7620980   -1.9242677 
H     1.6299585   -1.9420221    0.0575757 
H     2.7246416   -1.2045744   -1.1384110 
C     1.3725985   -3.0005275   -2.5628572 
O     1.4189539   -4.2031795   -1.8714647 
O     1.9480861   -2.9233860   -3.8237763 
H     2.8508309   -2.4781459   -3.7520339 
N    -0.5881929   -2.0108990   -1.3601092 
H     0.7034385   -1.0042633   -2.7430132 
H    -1.2751130   -1.3452338   -1.7865025 
H    -0.9291915   -2.9780371   -1.5875508 
