24
Energy =
C    -0.0037938    2.4229531   -1.1783052 
C    -0.3186816    2.5488646    0.1311550 
C     0.1012488    1.6201810    1.0202687 
C     0.7450204    1.3724269   -1.6016217 
C     1.1836120    0.4390067   -0.7114764 
C     0.8504933    0.5673799    0.6042687 
O    -1.0822432    3.6291910    0.5617635 
H    -0.4887934    4.4175988    0.7937550 
H     1.1706395   -0.1764514    1.3303189 
H     0.9786100    1.2702527   -2.6579640 
H    -0.3660763    3.1640918   -1.8825044 
H    -0.1739157    1.7215942    2.0648332 
C     2.0131680   -0.7405653   -1.1846713 
C     1.1584016   -1.8499804   -1.8332312 
H     2.5876337   -1.1722548   -0.3342082 
H     2.7713725   -0.3882349   -1.9170487 
C     0.1193034   -2.4170314   -0.8621608 
O     0.4476889   -2.6103089    0.4769684 
O    -1.1159298   -2.8650353   -1.3191627 
H    -1.6458415   -3.2203514   -0.5339936 
N     0.5755446   -1.3291302   -3.0871978 
H     1.8275688   -2.7092400   -2.0682919 
H     1.3021412   -1.3651775   -3.8394156 
H    -0.2000095   -1.9632844   -3.4044788 
