24
Energy =
C     1.2491307    2.4556277   -0.0673409 
C     0.0383594    2.5713000    0.5406656 
C    -0.7103481    1.4655924    0.7540430 
C     1.7047314    1.2370870   -0.4536769 
C     0.9553265    0.1221627   -0.2311737 
C    -0.2599997    0.2437872    0.3685819 
O    -0.4603684    3.8106569    0.9550042 
H     0.1518695    4.5914129    0.7444883 
H    -0.8790183   -0.6329096    0.5398662 
H     2.6701909    1.1624268   -0.9493534 
H     1.8541598    3.3370430   -0.2499191 
H    -1.6767925    1.5757892    1.2340091 
C     1.4482071   -1.2343007   -0.6840189 
C     0.9037646   -1.6029607   -2.0847237 
H     1.1367745   -2.0041217    0.0559488 
H     2.5623776   -1.2544392   -0.6976461 
C     1.3739251   -0.6321770   -3.1567101 
O     2.7331924   -0.4608212   -3.4082808 
O     0.4459780    0.1221699   -3.8663064 
H     0.9332791    0.7055171   -4.5335793 
N     1.2816125   -2.9887700   -2.4143758 
H    -0.2082794   -1.5229822   -2.0870860 
H     2.3262002   -3.0857758   -2.4103494 
H     0.8973355   -3.6472836   -1.6967748 
