24
Energy =
C     0.8021384    2.3430354    0.2325575 
C    -0.2596795    2.7353192   -0.5209914 
C    -0.6516679    1.9766264   -1.5695302 
C     1.4663908    1.1984669   -0.0685038 
C     1.0788220    0.4392274   -1.1296403 
C     0.0086537    0.8305356   -1.8747168 
O    -0.9661606    3.9091482   -0.2394410 
H    -0.6143103    4.4188433    0.5637123 
H    -0.3264255    0.2286965   -2.7158390 
H     2.3043753    0.8882751    0.5508487 
H     1.1194312    2.9404461    1.0802632 
H    -1.5037791    2.2988393   -2.1581249 
C     1.8034133   -0.8484206   -1.4536376 
C     1.1714087   -2.0498513   -0.7249334 
H     2.8790148   -0.7670960   -1.1781051 
H     1.7831069   -1.0191964   -2.5543404 
C     1.6905350   -3.3596564   -1.2942163 
O     2.9261400   -3.8649995   -0.9064938 
O     0.9504370   -4.0329842   -2.2552341 
H     1.4533728   -4.8682979   -2.5281279 
N     1.4148841   -1.9252561    0.7255544 
H     0.0724653   -2.0546836   -0.9192034 
H     0.9411408   -2.7172970    1.2228850 
H     2.4396884   -2.0408624    0.9168342 
