24
Energy =
C    -0.2787560    2.1354983   -0.7654426 
C    -0.1121312    2.4617289    0.5376779 
C     0.6957358    1.7113958    1.3267199 
C     0.3732454    1.0621307   -1.2737841 
C     1.1752254    0.2970023   -0.4960170 
C     1.3457444    0.6332050    0.8120121 
O    -0.7759190    3.5624655    1.0696498 
H    -0.2171926    4.4024412    0.9657585 
H     1.9996583    0.0469674    1.4524900 
H     0.2916499    0.6721423   -2.3829145 
H    -0.9350862    2.7311643   -1.3900256 
H     0.8170072    1.9813572    2.3705724 
C     1.9278468   -0.8680925   -1.1228928 
C     1.0850666   -1.7121548   -2.1236218 
H     2.2920574   -1.5497712   -0.3212221 
H     2.8295983   -0.4739661   -1.6415282 
C     0.7267458   -0.9724864   -3.4317468 
O     0.2071086    0.3217282   -3.4222372 
O     0.8264002   -1.6219884   -4.6506309 
H     0.5232844   -0.9893184   -5.3806702 
N     1.8126795   -2.9699027   -2.3737059 
H     0.1062032   -1.9521371   -1.6464698 
H     1.2452687   -3.5668703   -3.0248372 
H     2.6897440   -2.7514984   -2.9049009 
