24
Energy =
C    -0.4394515    2.2182613   -1.2523664 
C    -0.6344993    2.4932023    0.0571799 
C     0.0471553    1.7899222    1.0000832 
C     0.4290600    1.2460209   -1.6289544 
C     1.1121368    0.5360519   -0.6892354 
C     0.9170138    0.8158641    0.6292159 
O    -1.5388887    3.5013458    0.4055913 
H    -1.6278116    3.6550757    1.4039443 
H     1.4574589    0.2649783    1.3946429 
H     0.5751266    1.0421099   -2.6868330 
H    -0.9869289    2.7878564   -1.9958248 
H    -0.1020384    2.0070282    2.0518895 
C     2.0751848   -0.5530600   -1.1123321 
C     1.3394460   -1.8158007   -1.6297931 
H     2.7579080   -0.8318267   -0.2778908 
H     2.7310645   -0.1437331   -1.9160588 
C     2.3132073   -2.7585163   -2.3316911 
O     2.3901042   -2.7383411   -3.7193957 
O     3.1829869   -3.5866386   -1.6222110 
H     3.0062330   -3.5303335   -0.6300352 
N     0.6190511   -2.5089586   -0.5380132 
H     0.6183474   -1.5086273   -2.4247468 
H     0.6923823   -2.0042040    0.3756997 
H    -0.4029220   -2.5535711   -0.7652558 
