24
Energy =
C    -1.0004546    1.7855414   -1.2816427 
C    -1.4415621    1.7133957    0.0021906 
C    -0.6766270    1.1086387    0.9389078 
C     0.2050528    1.2589800   -1.6198751 
C     0.9802265    0.6549159   -0.6741097 
C     0.5270047    0.5763965    0.6069638 
O    -2.6746097    2.2499257    0.3846678 
H    -3.2024555    2.6607792   -0.3778957 
H     1.1209296    0.0877780    1.3751395 
H     0.5357161    1.3005832   -2.6601490 
H    -1.6156985    2.2569111   -2.0412222 
H    -1.0442743    1.0525606    1.9579534 
C     2.3190886    0.0503011   -1.0483785 
C     2.1752067   -1.3437388   -1.6951670 
H     2.9650202   -0.0309784   -0.1461675 
H     2.8631792    0.7280061   -1.7439741 
C     1.3610265   -1.2687471   -2.9832571 
O     0.0867228   -1.8145333   -3.0151544 
O     1.8008563   -0.5325456   -4.0821779 
H     2.7977612   -0.3717976   -4.0267557 
N     3.5239679   -1.8847337   -1.9345933 
H     1.6107790   -2.0171635   -1.0061889 
H     3.9707263   -2.1117379   -1.0146460 
H     3.4403342   -2.7985082   -2.4433413 
