24
Energy =
C    -0.3872137    1.8480011    0.4831358 
C    -0.8318863    2.4807488   -0.6354128 
C    -0.3165514    2.1486979   -1.8407675 
C     0.5703553    0.8906923    0.3902077 
C     1.0962873    0.5617700   -0.8217158 
C     0.6406374    1.1917613   -1.9396812 
O    -1.8173111    3.4711748   -0.5755787 
H    -2.1531504    3.6639741    0.3618844 
H     1.0378838    0.9330785   -2.9183855 
H     0.9067544    0.3820197    1.2905826 
H    -0.7994698    2.1026119    1.4535199 
H    -0.6833224    2.6579705   -2.7254554 
C     2.1484593   -0.5212097   -0.9324810 
C     1.5140741   -1.9089195   -1.1573267 
H     2.7700518   -0.5488470   -0.0094341 
H     2.8468735   -0.2648414   -1.7623142 
C     2.5699758   -2.8967652   -1.7096374 
O     3.2084438   -2.5372335   -2.8924490 
O     2.9291177   -4.1230515   -1.1330177 
H     2.3964735   -4.4416548   -0.3446832 
N     0.8017699   -2.2746457    0.0937265 
H     0.7816034   -1.8223022   -1.9970206 
H    -0.2287805   -2.3099270   -0.0884182 
H     1.0611387   -3.1995827    0.5026389 
