24
Energy =
C     1.0130437    1.4334535    1.3733301 
C     0.3744513    2.4612940    0.7678011 
C     0.1849254    2.4457506   -0.5715966 
C     1.4592905    0.3812585    0.6408680 
C     1.2734092    0.3592567   -0.7081992 
C     0.6285171    1.3968892   -1.3109171 
O    -0.0817750    3.5382288    1.5210339 
H    -1.0258743    3.3715227    1.8517009 
H     0.4676788    1.3943980   -2.3867206 
H     1.9634636   -0.4428154    1.1405436 
H     1.1647599    1.4634135    2.4469388 
H    -0.3211908    3.2808478   -1.0449134 
C     1.7523467   -0.8179918   -1.5274130 
C     0.6191116   -1.8413844   -1.7831600 
H     2.6066810   -1.3240650   -1.0230999 
H     2.1557518   -0.4459431   -2.4981540 
C     1.0244222   -2.8411521   -2.8609739 
O     0.9962727   -2.4267907   -4.1854244 
O     1.4884782   -4.1234332   -2.5782791 
H     1.4067030   -4.3197646   -1.5932939 
N     0.2118586   -2.4988475   -0.5266739 
H    -0.2609941   -1.3150247   -2.2208008 
H     1.0546334   -2.7659614    0.0331826 
H    -0.3446061   -1.8274132    0.0572001 
