24
Energy =
C     0.3743050    2.2204653   -0.2337202 
C     0.9670965    2.2943020    0.9812452 
C     1.7671797    1.2858762    1.4075811 
C     0.5805121    1.1302829   -1.0117083 
C     1.3608188    0.1089023   -0.5927838 
C     1.9699237    0.1942800    0.6218147 
O     0.7633501    3.4088663    1.7885591 
H    -0.0474423    3.2780460    2.3835304 
H     2.6240212   -0.6008645    0.9703969 
H     0.1050511    0.9396445   -2.0709360 
H    -0.2565885    3.0338037   -0.5752960 
H     2.2493193    1.3645072    2.3764309 
C     1.6061847   -1.0623460   -1.5310771 
C     0.3342348   -1.5752418   -2.2676975 
H     2.0347223   -1.9121595   -0.9521717 
H     2.3762313   -0.7681826   -2.2782734 
C    -0.2344888   -0.5869923   -3.3346754 
O    -0.3428243    0.7769531   -3.0574393 
O    -0.7308678   -1.0191479   -4.5641420 
H    -0.8100693   -2.0198692   -4.6514572 
N     0.6715001   -2.9084843   -2.8054238 
H    -0.4790924   -1.6880871   -1.5112980 
H    -0.2066888   -3.4488360   -2.9924141 
H     1.1852934   -2.8179433   -3.7178119 
