24
Energy =
C    -0.3601734    2.0347616   -0.5872835 
C    -0.0623419    2.3365317    0.7051932 
C     0.8917149    1.6270041    1.3557411 
C     0.3012043    1.0282172   -1.2082255 
C     1.2448679    0.3048411   -0.5611879 
C     1.5502655    0.6168580    0.7271331 
O    -0.7174541    3.3666250    1.3872223 
H    -1.4130582    3.8532112    0.8317474 
H     2.3213302    0.0676470    1.2610520 
H     0.1154668    0.6638231   -2.3153557 
H    -1.1208113    2.5903679   -1.1242539 
H     1.1236550    1.8824615    2.3840611 
C     2.0001701   -0.7797045   -1.3165748 
C     1.1076543   -1.6580805   -2.2416806 
H     2.5087511   -1.4534797   -0.5903464 
H     2.8007893   -0.3013951   -1.9231466 
C     0.5411352   -0.9118296   -3.4698200 
O    -0.0675458    0.3371068   -3.3507417 
O     0.5405104   -1.5170952   -4.7151767 
H     0.1076754   -0.8885018   -5.3805166 
N     1.8907795   -2.8477376   -2.6226858 
H     0.2137783   -1.9871067   -1.6620107 
H     1.2951530   -3.4678268   -3.2252053 
H     2.6793548   -2.5465921   -3.2444889 
