24
Energy =
C     1.6509904    1.7345027    1.1143206 
C     1.1372475    2.7838742    0.4183996 
C     0.8209764    2.6291437   -0.8874063 
C     1.8460307    0.5394961    0.5013128 
C     1.5323586    0.3846141   -0.8144872 
C     1.0134702    1.4363878   -1.5053577 
O     0.9223123    4.0282331    1.0197276 
H     1.1885505    4.0658198    1.9977272 
H     0.7501487    1.3310548   -2.5548340 
H     2.2504216   -0.2936875    1.0718715 
H     1.9048993    1.8478769    2.1627308 
H     0.4105100    3.4732725   -1.4306777 
C     1.7307993   -0.9501189   -1.4976480 
C     0.4211559   -1.7652277   -1.5701254 
H     2.5029088   -1.5536384   -0.9663924 
H     2.1335960   -0.7765728   -2.5214300 
C     0.5599617   -2.9332195   -2.5342990 
O     1.7138228   -3.7108543   -2.5593439 
O    -0.4801454   -3.2321380   -3.4055347 
H    -0.2257053   -4.0460264   -3.9507846 
N     0.0598376   -2.2234290   -0.2160848 
H    -0.3949293   -1.1321673   -1.9929426 
H    -0.2566513   -1.4022526    0.3514056 
H    -0.7719049   -2.8587538   -0.2783972 
