24
Energy =
C    -0.1322326    1.7896355    0.7870320 
C    -0.0632668    2.7316011   -0.1811432 
C     0.6262877    2.4845641   -1.3180390 
C     0.4851862    0.5921678    0.6190200 
C     1.1807484    0.3335741   -0.5244720 
C     1.2448365    1.2893163   -1.4938740 
O    -0.6968131    3.9572979   -0.0047535 
H    -1.6529673    3.9152617   -0.3405077 
H     1.7840918    1.0987166   -2.4179447 
H     0.4129889   -0.1599444    1.4016146 
H    -0.6862213    2.0043710    1.6945847 
H     0.6765648    3.2491527   -2.0859668 
C     1.8577557   -1.0090607   -0.7277609 
C     0.9688788   -2.0152510   -1.4911387 
H     2.1501465   -1.4440011    0.2544393 
H     2.8064101   -0.8648814   -1.2891944 
C    -0.2954773   -2.3770452   -0.7127001 
O    -0.2603441   -2.4836790    0.6747501 
O    -1.4649435   -2.7262043   -1.3780328 
H    -2.1690632   -2.9695729   -0.6932969 
N     0.6857561   -1.4809089   -2.8373258 
H     1.5314111   -2.9719752   -1.5855705 
H     1.5354625   -1.5998617   -3.4356285 
H    -0.0720607   -2.0514419   -3.2878907 
