24
Energy =
C     1.3332200    2.5153288   -0.8689248 
C     0.3987214    2.8343970    0.0556916 
C    -0.1640839    1.8649360    0.8117120 
C     1.7193223    1.2238993   -1.0313402 
C     1.1658209    0.2407551   -0.2666608 
C     0.2152864    0.5709153    0.6532458 
O     0.0093823    4.1587704    0.2242518 
H     0.5896439    4.6187663    0.9166708 
H    -0.2502542   -0.2013772    1.2601633 
H     2.4626021    0.9806539   -1.7860690 
H     1.7612616    3.3010605   -1.4822854 
H    -0.9260267    2.1329518    1.5363372 
C     1.5906476   -1.2043472   -0.4536881 
C     0.7678952   -1.9346585   -1.5377930 
H     1.5086087   -1.7567753    0.5090849 
H     2.6660204   -1.2411895   -0.7328025 
C    -0.6978539   -2.1005947   -1.1416642 
O    -1.6868834   -2.2286783   -2.1108175 
O    -1.0526418   -2.2634012    0.1946225 
H    -2.0475678   -2.4507178    0.2397281 
N     0.9414977   -1.2363884   -2.8260243 
H     1.1563243   -2.9748469   -1.6256337 
H     1.9077184   -1.4152426   -3.1854578 
H     0.2880752   -1.6451616   -3.5380982 
