24
Energy =
C     0.0795558    1.3936841    1.2186373 
C     0.7583540    2.4933519    0.7960741 
C     1.6840359    2.3722879   -0.1822979 
C     0.3327635    0.1810923    0.6636820 
C     1.2711248    0.0561244   -0.3148608 
C     1.9404924    1.1623951   -0.7416808 
O     0.5229614    3.7570721    1.3467549 
H    -0.1883910    3.7661800    2.0696496 
H     2.6836695    1.0887994   -1.5313674 
H    -0.2280552   -0.6883481    0.9983749 
H    -0.6706218    1.4823929    1.9970449 
H     2.2143953    3.2587125   -0.5129665 
C     1.5392203   -1.2915687   -0.9492322 
C     0.5428253   -1.5876012   -2.0870152 
H     1.4780149   -2.0955203   -0.1808303 
H     2.5823826   -1.3206060   -1.3372598 
C     1.0122677   -2.7648140   -2.9279583 
O     1.0732530   -4.0384111   -2.3788846 
O     1.4352689   -2.5691577   -4.2352290 
H     2.3669172   -2.1813264   -4.2305147 
N    -0.7971053   -1.8132514   -1.5120761 
H     0.5063789   -0.7118260   -2.7777360 
H    -1.4943985   -1.8672106   -2.2929600 
H    -0.8231297   -2.7504487   -1.0392170 
