24
Energy =
C    -0.6288281    0.9563895    1.1089333 
C    -0.7498450    2.1868199    0.5600435 
C     0.0371417    2.5437328   -0.4805420 
C     0.2934628    0.0831931    0.6296761 
C     1.1001131    0.4400723   -0.4095836 
C     0.9592923    1.6748107   -0.9676453 
O    -1.6893405    3.0832084    1.0609406 
H    -1.2936994    3.6331438    1.8149265 
H     1.5740584    1.9693223   -1.8137460 
H     0.3702888   -0.9075373    1.0712003 
H    -1.2840363    0.6758155    1.9260722 
H    -0.0837447    3.5255139   -0.9257127 
C     2.1194702   -0.5372604   -0.9620978 
C     1.5145937   -1.4934043   -2.0141571 
H     2.5658405   -1.1225439   -0.1278109 
H     2.9651984    0.0206112   -1.4217522 
C     0.4402157   -2.4008912   -1.4019618 
O    -0.9080688   -2.1686244   -1.6464955 
O     0.7892830   -3.4453973   -0.5430937 
H     1.7893773   -3.5468558   -0.4568159 
N     1.0148787   -0.7045347   -3.1533744 
H     2.3225048   -2.1698182   -2.3753530 
H     1.8239120   -0.2898563   -3.6715522 
H     0.5186986   -1.3351174   -3.8276586 
