24
Energy =
C    -0.2641919    1.8621257    0.6786567 
C    -1.1401445    2.2368665   -0.2813806 
C    -0.9188062    1.8716773   -1.5719757 
C     0.8338175    1.1306864    0.3605389 
C     1.0652466    0.7699471   -0.9319616 
C     0.1774493    1.1390995   -1.8952714 
O    -2.2585909    2.9928220    0.0842395 
H    -2.8748677    3.2263538   -0.6860774 
H     0.3375765    0.8364094   -2.9268654 
H     1.5169094    0.8267469    1.1503599 
H    -0.4560276    2.1494133    1.7071033 
H    -1.6215075    2.1608399   -2.3452113 
C     2.2775627   -0.0662175   -1.2893600 
C     1.9588064   -1.5738263   -1.3762824 
H     3.0854389    0.0960662   -0.5392581 
H     2.6953451    0.2798924   -2.2599986 
C     1.4426515   -2.1178025   -0.0412467 
O     2.3592588   -2.5786020    0.8945628 
O     0.0902742   -2.1087359    0.2924858 
H    -0.4498475   -1.7027906   -0.4577211 
N     1.0336328   -1.8177198   -2.5014981 
H     2.9159787   -2.1192547   -1.5602618 
H     1.5243334   -1.5992172   -3.4018324 
H     0.8138292   -2.8431749   -2.5484105 
