24
Energy =
C    -0.9342744    0.8812006    0.7617789 
C    -0.8333010    2.1434557    0.2866018 
C     0.2063503    2.4747399   -0.5242855 
C    -0.0062253   -0.0532956    0.4346987 
C     1.0405444    0.2745361   -0.3719458 
C     1.1390419    1.5453644   -0.8523703 
O    -1.8098077    3.0776775    0.6468022 
H    -1.6772848    3.9969190    0.2389467 
H     1.9611735    1.8260508   -1.5070766 
H    -0.1085325   -1.0638117    0.8220420 
H    -1.7702348    0.6276543    1.4051649 
H     0.2920856    3.4827781   -0.9145905 
C     2.0630513   -0.7755135   -0.7530509 
C     1.5786236   -1.6596775   -1.9191189 
H     2.2783233   -1.4136448    0.1322143 
H     3.0368528   -0.3064959   -1.0253402 
C     1.4345884   -0.8704461   -3.2283877 
O     2.2867632    0.1950816   -3.5077602 
O     0.5017646   -1.2582122   -4.1931975 
H    -0.0426716   -2.0642212   -3.9135149 
N     2.5228611   -2.7867092   -2.0561422 
H     0.5603822   -2.0472793   -1.6748741 
H     2.3587952   -3.4718746   -1.2813529 
H     2.3386479   -3.3082807   -2.9516579 
