24
Energy =
C     0.7873245    2.6108892   -0.0773058 
C    -0.3465735    2.3954386    0.6419655 
C    -0.7042389    1.1315573    0.9631017 
C     1.5568948    1.5630420   -0.4679831 
C     1.2032147    0.2907839   -0.1351466 
C     0.0624628    0.0806754    0.5760096 
O    -1.1621051    3.4516423    1.0602683 
H    -0.8294018    4.3673000    0.7781741 
H    -0.2450041   -0.9310094    0.8273196 
H     2.4563819    1.7499563   -1.0494477 
H     1.0792457    3.6208762   -0.3442182 
H    -1.6154385    0.9734579    1.5296185 
C     2.0458924   -0.8815432   -0.5882600 
C     1.5122493   -1.4776918   -1.9087673 
H     2.0641080   -1.6579172    0.2081831 
H     3.1027959   -0.5520164   -0.7185208 
C     2.5533448   -2.3474853   -2.6127516 
O     2.9166322   -2.0395059   -3.9168833 
O     3.1437799   -3.4490495   -1.9935615 
H     2.8173346   -3.5714457   -1.0479761 
N     0.2520771   -2.1999190   -1.6458230 
H     1.3122014   -0.6371850   -2.6178060 
H    -0.1759574   -2.4913191   -2.5584425 
H     0.4430374   -3.0817838   -1.1136226 
