24
Energy =
C    -0.2527988    2.1294156   -0.6379420 
C     0.2896800    2.5996702    0.5173762 
C     1.3474049    1.9576686    1.0704383 
C     0.2716283    1.0245848   -1.2216138 
C     1.3185494    0.3687996   -0.6680252 
C     1.8675981    0.8483549    0.4804826 
O    -0.2166482    3.7362331    1.1555134 
H    -1.0043769    4.1616675    0.6784258 
H     2.7237681    0.3543824    0.9324032 
H    -0.1251734    0.5146015   -2.2096134 
H    -1.0997585    2.6287926   -1.0949993 
H     1.7739418    2.3470073    1.9885692 
C     1.9084165   -0.8356961   -1.3884048 
C     0.8496750   -1.8053073   -1.9894688 
H     2.5427885   -1.4169819   -0.6816349 
H     2.5801330   -0.4748828   -2.1984112 
C     0.0612929   -1.2208592   -3.1824376 
O    -0.5053135    0.0519054   -3.1335478 
O    -0.1785538   -1.9940259   -4.3053700 
H    -0.7299291   -1.4513663   -4.9586147 
N     1.5375010   -3.0618538   -2.3376545 
H     0.0854412   -2.0209600   -1.2066409 
H     0.8300831   -3.7406615   -2.7135329 
H     2.1849404   -2.8795549   -3.1418322 
