24
Energy =
C    -0.4960354    1.0487861    1.1515094 
C    -0.3942088    2.3016167    0.6505728 
C     0.4568827    2.5553340   -0.3696496 
C     0.2497082    0.0420260    0.6287614 
C     1.1104589    0.2904557   -0.3972428 
C     1.2062709    1.5540550   -0.8976781 
O    -1.1612228    3.3307286    1.1876657 
H    -2.0592438    3.3866532    0.7198026 
H     1.8772850    1.7701136   -1.7268142 
H     0.1527614   -0.9608953    1.0367507 
H    -1.1781558    0.8618721    1.9735675 
H     0.5310497    3.5648075   -0.7602708 
C     1.9241441   -0.8352918   -0.9975755 
C     1.1357704   -1.6155006   -2.0620983 
H     2.2433680   -1.5339739   -0.1932176 
H     2.8634700   -0.4474105   -1.4542862 
C     0.7790909   -0.7362612   -3.2578873 
O    -0.5033460   -0.7754250   -3.7917692 
O     1.7347720    0.0824719   -3.8504012 
H     1.3138471    0.5499316   -4.6432387 
N     1.9424910   -2.7959160   -2.4370638 
H     0.1642534   -1.9433847   -1.6209526 
H     1.4608332   -3.6665279   -2.1104237 
H     2.0338185   -2.8827027   -3.4789140 
