24
Energy =
C    -0.6498876    1.1477268    1.0471850 
C    -0.8373089    2.3532628    0.4487299 
C    -0.0762259    2.6968388   -0.6142327 
C     0.2968481    0.2941283    0.5802809 
C     1.0607552    0.6332975   -0.4960942 
C     0.8696570    1.8462477   -1.0876965 
O    -1.8009638    3.2571945    0.9059004 
H    -2.3443641    2.9204111    1.6934644 
H     1.4688975    2.1458505   -1.9437279 
H     0.4298309   -0.6687744    1.0672976 
H    -1.2588887    0.8622892    1.8983912 
H    -0.2361905    3.6629807   -1.0812598 
C     2.1245793   -0.3158750   -1.0229812 
C     1.5624971   -1.5389301   -1.7968211 
H     2.7454929   -0.6735936   -0.1706373 
H     2.8271438    0.2262508   -1.6943793 
C     0.8462048   -2.5220691   -0.8776732 
O     1.5773775   -3.4946939   -0.2074131 
O    -0.5146183   -2.3998743   -0.6145617 
H    -0.8090242   -3.1657153   -0.0206249 
N     0.7703027   -1.1353704   -2.9851682 
H     2.4386322   -2.1168031   -2.1695002 
H    -0.1930209   -1.5510369   -2.9452400 
H     0.6194398   -0.1031288   -3.0326035 
