24
Energy =
C     0.8105401    2.6374709   -1.1305283 
C     0.5795861    2.7722484    0.1954923 
C     0.7233486    1.7089893    1.0193396 
C     1.2009435    1.4396352   -1.6364544 
C     1.3617892    0.3672396   -0.8106800 
C     1.1110831    0.5073351    0.5209497 
O     0.1831801    4.0020931    0.7106901 
H     0.9889837    4.5657691    0.9581638 
H     1.2145721   -0.3400289    1.1944834 
H     1.3705746    1.3398296   -2.7073910 
H     0.6692268    3.4943494   -1.7806265 
H     0.5183233    1.8267285    2.0784177 
C     1.7734008   -0.9785084   -1.3695506 
C     0.5571455   -1.8459590   -1.7464544 
H     2.3934699   -1.5181822   -0.6206294 
H     2.4240601   -0.8572630   -2.2659381 
C    -0.2378962   -1.2423456   -2.8931060 
O     0.3970840   -0.6138555   -3.9608674 
O    -1.6224306   -1.3313903   -2.8881205 
H    -1.9804632   -0.9085057   -3.7352223 
N     1.0394694   -3.1971068   -2.0798061 
H    -0.1509575   -1.8961444   -0.8846854 
H     1.3186304   -3.6886874   -1.1989602 
H     0.2461134   -3.7547132   -2.4816126 
