24
Energy =
C     0.2083643    2.1719131   -0.3361105 
C     0.9703263    2.7897086   -1.2786967 
C     1.9095167    2.0795610   -1.9373148 
C     0.3775433    0.8445356   -0.0513257 
C     1.3325917    0.1388829   -0.7293236 
C     2.0923564    0.7645950   -1.6704315 
O     0.8079325    4.1505185   -1.5835620 
H     0.0603313    4.5747694   -1.0489665 
H     2.8473799    0.2160900   -2.2222134 
H    -1.4678401   -0.3547203    2.2271131 
H    -0.5502462    2.7280649    0.2006828 
H     2.5119757    2.5750298   -2.6864909 
C     1.5125055   -1.3349742   -0.4712132 
C     0.2084210   -2.1223834   -0.7244224 
H     1.8368027   -1.4623360    0.5833386 
H     2.3181691   -1.7581447   -1.1068503 
C    -0.8264481   -1.7423284    0.3163452 
O    -1.1856246   -2.6373484    1.3214204 
O    -1.2679058   -0.4119379    0.4767292 
H    -0.4920667    0.3326220    1.3783305 
N    -0.2858912   -1.9242482   -2.1008728 
H     0.4201605   -3.2030408   -0.5808557 
H    -0.6261867   -0.9310887   -2.1758607 
H     0.5125487   -2.0077423   -2.7698521 
