24
Energy =
C     0.4219569    2.2315219    0.4515430 
C    -0.6427477    2.5228082   -0.3309122 
C    -0.8844898    1.7931119   -1.4441404 
C     1.2469326    1.2040609    0.1257367 
C     1.0124734    0.4673149   -0.9951219 
C    -0.0637980    0.7636474   -1.7762540 
O    -1.4875249    3.5758085    0.0059956 
H    -2.2385502    3.2530420    0.6059834 
H    -0.2729486    0.1802583   -2.6695874 
H     2.0909976    0.9705874    0.7698531 
H     0.6058756    2.8268042    1.3390776 
H    -1.7386272    2.0415005   -2.0653227 
C     1.9162186   -0.6923729   -1.3491380 
C     1.4148959   -2.0091890   -0.7240735 
H     2.9569684   -0.4892525   -1.0092987 
H     1.9737897   -0.7945549   -2.4569999 
C     2.1306420   -3.2033171   -1.3318162 
O     3.4174811   -3.5434347   -0.9312719 
O     1.5141504   -3.9349671   -2.3366355 
H     2.1387916   -4.6760146   -2.6301160 
N     1.5663824   -1.9435421    0.7428498 
H     0.3383059   -2.1484601   -0.9827062 
H     1.2001411   -2.8293489    1.1674979 
H     2.5869326   -1.9137808    0.9835239 
