24
Energy =
C    -1.2977626    0.8745132    0.5863148 
C    -1.6297181    1.8210315   -0.3212878 
C    -0.7364550    2.1967470   -1.2651593 
C    -0.0697613    0.2966309    0.5509984 
C     0.8362949    0.6709805   -0.3960372 
C     0.4923603    1.6216897   -1.3083242 
O    -2.8890058    2.4109329   -0.2813763 
H    -3.5499075    1.8805357   -0.8386078 
H     1.1957978    1.9215612   -2.0807406 
H     0.1787273   -0.4774149    1.2745499 
H    -2.0252463    0.5842058    1.3367344 
H    -1.0137409    2.9588387   -1.9857550 
C     2.1987905    0.0103580   -0.4559621 
C     2.2165342   -1.2406711   -1.3612024 
H     2.5274740   -0.2724484    0.5702233 
H     2.9547570    0.7407637   -0.8196188 
C     1.2353510   -2.3037480   -0.8631604 
O     1.6461840   -3.1814682    0.1305260 
O    -0.0867850   -2.3588327   -1.2988174 
H    -0.2565536   -1.6350787   -1.9824394 
N     1.9746409   -0.8427915   -2.7622728 
H     3.2252373   -1.7125218   -1.2792666 
H     2.7366648   -0.1944250   -3.0753503 
H     2.0574026   -1.6890976   -3.3769279 
