24
Energy =
C     1.4392309    2.0062116    0.4744546 
C     0.7245426    2.8624215   -0.2908430 
C     0.2624729    2.4663713   -1.4987538 
C     1.6882900    0.7459215    0.0368757 
C     1.2219878    0.3366405   -1.1758788 
C     0.5075071    1.2064807   -1.9429506 
O     0.4695230    4.1535933    0.1597791 
H    -0.4091492    4.1863277    0.6654810 
H     0.1272461    0.8960510   -2.9117033 
H     2.2540720    0.0653571    0.6687037 
H     1.8062009    2.3372490    1.4397840 
H    -0.3023336    3.1682591   -2.1033088 
C     1.4821934   -1.0762956   -1.6565913 
C     0.4165930   -2.0945443   -1.1764384 
H     2.4842513   -1.4079061   -1.2987914 
H     1.5447442   -1.1000029   -2.7665847 
C     0.3764025   -2.2259364    0.3397109 
O    -0.4443347   -1.4107673    1.1148147 
O     1.2287201   -3.1225691    0.9721655 
H     1.0680666   -3.0734588    1.9698215 
N    -0.9070704   -1.7923293   -1.7533488 
H     0.7255517   -3.1055510   -1.5279879 
H    -1.2931532   -0.9172929   -1.3231505 
H    -0.8322462   -1.6484962   -2.7866232 
