24
Energy =
C    -0.3591132    1.0516154    1.0360733 
C    -0.8560876    2.0563224    0.2788078 
C    -0.3431011    2.2813084   -0.9599768 
C     0.6456190    0.2690477    0.5672058 
C     1.1675510    0.4946607   -0.6693065 
C     0.6628037    1.5032112   -1.4331413 
O    -1.8939544    2.8374967    0.7958222 
H    -2.2142418    3.5715640    0.1732439 
H     1.0572464    1.6878100   -2.4308786 
H     1.0281808   -0.5371381    1.1880568 
H    -0.7779905    0.8801758    2.0223110 
H    -0.7390632    3.0812239   -1.5759893 
C     2.2670077   -0.3961858   -1.2059100 
C     1.7084576   -1.6873021   -1.8371539 
H     2.9679493   -0.6561243   -0.3822688 
H     2.8768851    0.1459805   -1.9658085 
C     0.7681725   -1.3864960   -3.0013039 
O     1.1526989   -0.5340750   -4.0293693 
O    -0.5115199   -1.9253550   -3.0203604 
H    -1.0998038   -1.3854304   -2.4037536 
N     2.8415152   -2.5246331   -2.2623805 
H     1.1100694   -2.2381936   -1.0747247 
H     3.3542006   -2.8698342   -1.4172930 
H     2.4779225   -3.3772780   -2.7522461 
