24
Energy =
C     1.1425037    2.5793219   -0.9000927 
C     1.0385849    2.7437459    0.4389471 
C     1.1472945    1.6758342    1.2623823 
C     1.3484947    1.3431835   -1.4217927 
C     1.4588689    0.2634347   -0.5988093 
C     1.3538274    0.4366482    0.7483296 
O     0.8263968    4.0122741    0.9700097 
H    -0.1654501    4.2122396    1.0359209 
H     1.4334290   -0.4135027    1.4217898 
H     1.4281118    1.2255515   -2.4997859 
H     1.0633083    3.4459700   -1.5473031 
H     1.0704125    1.8219274    2.3346930 
C     1.6757070   -1.1157847   -1.1803483 
C     0.3612736   -1.7463783   -1.6904903 
H     2.1357112   -1.7952244   -0.4268704 
H     2.4158940   -1.0467274   -2.0103471 
C     0.6461735   -2.9466048   -2.5823476 
O    -0.1483961   -3.1857663   -3.6946801 
O     1.6578423   -3.8441591   -2.2680229 
H     1.2940459   -4.5018983   -1.5937607 
N    -0.4757565   -2.1247835   -0.5377070 
H    -0.1804550   -1.0134304   -2.3345562 
H    -0.8042480   -1.2553895   -0.0548218 
H    -1.3479552   -2.5909204   -0.8874423 
