24
Energy =
C     0.0227528    1.8028031    0.7519332 
C     0.3529361    2.7789280   -0.1351180 
C     1.1241250    2.4773490   -1.2043036 
C     0.4674800    0.5338510    0.5663892 
C     1.2513778    0.2308917   -0.5047231 
C     1.5708513    1.2099339   -1.3954581 
O    -0.0882133    4.0961625    0.0261725 
H    -0.6623033    4.2413441    0.8495577 
H     2.1839486    0.9880579   -2.2654062 
H     0.1841186   -0.2409968    1.2744796 
H    -0.6014984    2.0337742    1.6083859 
H     1.3762356    3.2648456   -1.9062402 
C     1.7301558   -1.1877780   -0.7253232 
C     0.6830078   -2.0300798   -1.4823484 
H     1.9686324   -1.6703624    0.2491131 
H     2.6885462   -1.1761114   -1.2931689 
C     1.2888877   -3.3388636   -1.9902539 
O     2.2015652   -4.0216882   -1.1973040 
O     0.9054487   -3.9016468   -3.2061907 
H     0.1861712   -3.3680377   -3.6697923 
N    -0.4753317   -2.2673295   -0.6015840 
H     0.3568135   -1.4515363   -2.3772759 
H    -1.2471319   -2.6978827   -1.1643034 
H    -0.2183917   -2.9779692    0.1281287 
