24
Energy =
C    -0.1363843    1.7307317    0.8612514 
C    -0.0620329    2.7528755   -0.0327811 
C     0.6254796    2.5843804   -1.1851299 
C     0.4788966    0.5496424    0.5998795 
C     1.1802865    0.3825891   -0.5552547 
C     1.2437245    1.4062757   -1.4510723 
O    -0.6818990    3.9833591    0.2070628 
H    -1.1901298    4.0269558    1.0837362 
H     1.7801665    1.2851862   -2.3898934 
H     0.4036906   -0.2614440    1.3198240 
H    -0.6907477    1.8545837    1.7853467 
H     0.6695970    3.4037195   -1.8944887 
C     1.8454190   -0.9431802   -0.8599726 
C     0.8669031   -1.9435377   -1.5207126 
H     2.2403312   -1.3805810    0.0838711 
H     2.7240290   -0.7911343   -1.5281206 
C     0.3249894   -1.4035887   -2.8377763 
O     1.1811943   -1.1571451   -3.9061594 
O    -1.0269074   -1.1179301   -2.9701603 
H    -1.1972388   -0.7740592   -3.9063215 
N     1.5025783   -3.2779555   -1.6627198 
H    -0.0290397   -2.0561791   -0.8668629 
H     1.5706547   -3.5596599   -2.6719005 
H     2.4856516   -3.2965023   -1.3025279 
