24
Energy =
C     0.4748592    2.5813277   -1.3613034 
C     0.4825992    2.8670266   -0.0390794 
C     0.9309861    1.9504829    0.8491919 
C     0.9315985    1.3812376   -1.8021050 
C     1.4001905    0.4589473   -0.9146492 
C     1.3868999    0.7471662    0.4165674 
O     0.0186754    4.0997411    0.4084749 
H     0.7667942    4.7841161    0.4193800 
H     1.7351015    0.0171098    1.1432510 
H     0.9039688    1.1526404   -2.8667859 
H     0.0889156    3.3177844   -2.0580039 
H     0.9139808    2.1854738    1.9084485 
C     1.8885255   -0.8901055   -1.3994962 
C     0.7387195   -1.9209438   -1.5057356 
H     2.6647507   -1.2756378   -0.7015715 
H     2.3833405   -0.7874379   -2.3922238 
C    -0.3231853   -1.4682936   -2.4951034 
O     0.0193010   -1.1568279   -3.8067484 
O    -1.6401796   -1.3247957   -2.0864831 
H    -2.2007599   -1.0427576   -2.8804157 
N     1.2742487   -3.2680942   -1.8241852 
H     0.2073078   -1.9770506   -0.5261972 
H     0.9242945   -3.6002961   -2.7567416 
H     2.3183058   -3.2811042   -1.8964380 
