24
Energy =
C     2.1728518    2.0743346   -0.0443008 
C     1.1456438    2.4963152    0.7400783 
C     0.1174357    1.6582715    1.0027220 
C     2.1648324    0.8199360   -0.5619898 
C     1.1285424   -0.0242852   -0.3008433 
C     0.1036988    0.4025892    0.4875858 
O     1.1212327    3.7827429    1.2878619 
H     1.9292945    4.3483669    1.0510397 
H    -0.7312568   -0.2546667    0.7152555 
H     2.9954572    0.4953769   -1.1845036 
H     3.0032999    2.7385176   -0.2584757 
H    -0.6936879    2.0072754    1.6326730 
C     1.1201099   -1.4193527   -0.8882784 
C     0.8002979   -1.4113319   -2.4047506 
H     0.3980984   -2.0780011   -0.3541027 
H     2.1235850   -1.8755500   -0.7197341 
C     1.1019807   -2.7718837   -3.0234309 
O     2.3319157   -2.9715497   -3.6371697 
O     0.2224704   -3.8489287   -2.9174322 
H    -0.6527811   -3.5662631   -2.5027539 
N    -0.5989526   -1.0024504   -2.6631301 
H     1.5032639   -0.7110466   -2.9170300 
H    -1.1214716   -0.7743086   -1.7857740 
H    -0.6073228   -0.1298247   -3.2430823 
