24
Energy =
C     0.5820627    2.5664383   -0.3957517 
C    -0.6068901    2.3905592    0.2253420 
C    -1.0007216    1.1503681    0.5952148 
C     1.3803862    1.4998379   -0.6547642 
C     0.9925282    0.2480104   -0.2828909 
C    -0.2069155    0.0783678    0.3396239 
O    -1.4236638    3.4849040    0.4898145 
H    -2.0658584    3.6446251   -0.2790507 
H    -0.5361541   -0.9152785    0.6308691 
H     2.3261458    1.6551014   -1.1698354 
H     0.8862167    3.5663162   -0.6861609 
H    -1.9557716    1.0268766    1.0954858 
C     1.8653982   -0.9479200   -0.5981510 
C     1.4210031   -1.6603917   -1.8987733 
H     1.8317108   -1.6652151    0.2510206 
H     2.9302697   -0.6332325   -0.7009446 
C     1.4782039   -0.7298803   -3.0986854 
O     2.6679388   -0.1052917   -3.4632376 
O     0.3168573   -0.4512684   -3.8111059 
H     0.5470002    0.1703516   -4.5753843 
N     2.2392622   -2.8699310   -2.1345714 
H     0.3464086   -1.9446476   -1.8055294 
H     2.9465246   -3.0421890   -1.3817892 
H     1.6229447   -3.7149849   -2.1849968 
