24
Energy =
C    -0.5625336    1.4787162    0.8488480 
C     0.0807121    2.6013367    0.4536892 
C     1.2130643    2.5096622   -0.2808574 
C    -0.0768067    0.2581300    0.5065788 
C     1.0649649    0.1574066   -0.2289811 
C     1.7041158    1.2926075   -0.6282840 
O    -0.4201259    3.8506042    0.8062350 
H    -1.0768170    4.1816894    0.1081274 
H     2.6103722    1.2353105   -1.2263863 
H    -0.6105055   -0.6370448    0.8156029 
H    -1.4679857    1.5678567    1.4390854 
H     1.7215003    3.4176744   -0.5874776 
C     1.5971176   -1.2003852   -0.6316784 
C     0.9547131   -1.6919410   -1.9421727 
H     1.4122783   -1.9435628    0.1760614 
H     2.7034861   -1.1467821   -0.7488391 
C     1.7152596   -2.8860668   -2.4981144 
O     2.5372411   -2.7349228   -3.6073111 
O     1.6364933   -4.1241441   -1.8723275 
H     2.2182136   -4.7802560   -2.3785867 
N    -0.4691759   -1.9958455   -1.7011729 
H     1.0388664   -0.8867944   -2.7103088 
H    -0.9332184   -2.1784508   -2.6224623 
H    -0.5426076   -2.8939297   -1.1612449 
