24
Energy =
C     0.7955517    2.4989978   -1.2598349 
C     0.5892105    2.8351121    0.0341984 
C     0.7637543    1.9136316    1.0088552 
C     1.1839187    1.2393280   -1.5839446 
C     1.3642961    0.3058975   -0.6079543 
C     1.1523932    0.6519333    0.6929951 
O     0.1890309    4.1265024    0.3623013 
H     0.9943998    4.7254252    0.5075708 
H     1.2901302   -0.0758079    1.4888290 
H     1.3478989    0.9845273   -2.6277299 
H     0.6424305    3.2461394   -2.0310205 
H     0.5866722    2.1940355    2.0419663 
C     1.7880290   -1.1010552   -0.9716732 
C     0.6341955   -1.9127693   -1.6144515 
H     2.1700912   -1.6505784   -0.0797645 
H     2.6479719   -1.0370824   -1.6761991 
C     1.1623963   -3.1963075   -2.2329267 
O     1.7588858   -4.1705649   -1.4424716 
O     1.1394065   -3.3672850   -3.6123218 
H     1.8764255   -2.8182069   -4.0280898 
N    -0.4279669   -2.2130091   -0.6299309 
H     0.2091657   -1.3333737   -2.4677869 
H    -0.2703417   -1.7502781    0.2945700 
H    -1.3510941   -1.8699942   -0.9859688 
