24
Energy =
C    -0.0887569    1.7031631    0.9615266 
C    -0.4721219    2.5422152   -0.0375557 
C    -0.0674470    2.3010096   -1.3053689 
C     0.6970567    0.6308873    0.6875206 
C     1.1100962    0.3912319   -0.5875661 
C     0.7178816    1.2298815   -1.5852556 
O    -1.2821321    3.6548941    0.2098967 
H    -1.5394392    3.7701259    1.1841890 
H     1.0293620    1.0504788   -2.6114151 
H     0.9883856   -0.0400392    1.4930544 
H    -0.4122776    1.8860784    1.9806543 
H    -0.3827329    2.9769915   -2.0928767 
C     1.9688229   -0.8140211   -0.8999507 
C     1.1280731   -2.0183612   -1.3712399 
H     2.5622239   -1.1170856   -0.0071142 
H     2.7154489   -0.5414488   -1.6800903 
C     2.0100412   -3.1176029   -1.9476434 
O     3.3631444   -3.2007583   -1.6337489 
O     1.4525151   -4.0661804   -2.7940854 
H     2.1737901   -4.7233569   -3.0640721 
N     0.3153123   -2.5108090   -0.2420289 
H     0.4680138   -1.7059940   -2.2150218 
H    -0.4999835   -1.8684857   -0.1062573 
H    -0.1026543   -3.4395893   -0.4990595 
