24
Energy =
C     0.0502637    2.5183708   -1.3272419 
C    -0.5900436    2.5478053   -0.1357839 
C    -0.3708461    1.5717969    0.7748874 
C     0.9224938    1.5162505   -1.6080820 
C     1.1587975    0.5370460   -0.6910697 
C     0.5007453    0.5675040    0.5018064 
O    -1.4816755    3.5769136    0.1484050 
H    -0.9992421    4.3626484    0.5699476 
H     0.6602380   -0.2157927    1.2400067 
H     1.4219006    1.4911392   -2.5740843 
H    -0.1505889    3.2983748   -2.0539794 
H    -0.9038054    1.5971046    1.7196249 
C     2.1202994   -0.5900268   -1.0082270 
C     1.4344050   -1.7932211   -1.6843710 
H     2.6245080   -0.9292775   -0.0749360 
H     2.9302058   -0.2211570   -1.6754665 
C     0.3880237   -2.4422327   -0.7803259 
O     0.7740907   -2.9888317    0.4384406 
O    -0.9528366   -2.4850918   -1.1452630 
H    -1.4749318   -2.9501236   -0.4139992 
N     0.9141269   -1.3823710   -3.0038396 
H     2.2132193   -2.5755811   -1.8356605 
H     0.6789285   -2.2467897   -3.5472293 
H    -0.0078180   -0.8970661   -2.8701643 
