24
Energy =
C    -0.1795040    2.1907105   -1.5639772 
C    -0.1628217    2.8874095   -0.3959588 
C     0.4692873    2.3681021    0.6843922 
C     0.4359272    0.9853937   -1.6326899 
C     1.0572241    0.4522211   -0.5539164 
C     1.0836269    1.1573241    0.6093422 
O    -0.7833783    4.1348993   -0.2774482 
H    -1.2310755    4.4562552   -1.1291825 
H     1.5955520    0.7634268    1.4832427 
H     0.4729278    0.2889928   -2.5849158 
H    -0.6796694    2.5898845   -2.4392663 
H     0.4802523    2.9372012    1.6077030 
C     1.7791204   -0.8821516   -0.6899374 
C     1.0031189   -1.9415401   -1.5375474 
H     1.9628580   -1.2995807    0.3245784 
H     2.7769752   -0.7019178   -1.1484660 
C     0.9302610   -1.6024818   -3.0425744 
O     0.5002838   -0.3490513   -3.4824213 
O     1.2415044   -2.5509215   -4.0030084 
H     1.0988249   -2.1438365   -4.9170152 
N     1.5922975   -3.2725550   -1.3123431 
H    -0.0578489   -1.9692359   -1.1989524 
H     2.5901068   -3.2774194   -1.6327797 
H     1.5738484   -3.5158563   -0.2946022 
