24
Energy =
C     1.4044050    2.4500812   -1.6428211 
C     0.1275469    2.8756910   -1.5052697 
C    -0.7585295    2.1405189   -0.7954340 
C     1.7990738    1.2827618   -1.0740095 
C     0.9135563    0.5383224   -0.3553424 
C    -0.3718462    0.9717619   -0.2244161 
O    -0.2744738    4.0719104   -2.0910373 
H    -0.6216681    3.9073920   -3.0303397 
H    -1.0994983    0.3813977    0.3252906 
H     2.8209420    0.9391227   -1.2144367 
H     2.1026738    3.0473491   -2.2189041 
H    -1.7794452    2.4926258   -0.6955215 
C     1.3434106   -0.7892547    0.2366119 
C     1.2125096   -2.0057359   -0.7452794 
H     0.7412573   -0.9964346    1.1494505 
H     2.3761838   -0.6700521    0.6267727 
C     0.5842509   -1.6527694   -2.1064746 
O     1.3919640   -1.2130419   -3.1502496 
O    -0.7982555   -1.6879437   -2.3019793 
H    -1.2986947   -1.9901618   -1.4800855 
N     2.4906251   -2.7527803   -0.8725876 
H     0.4906578   -2.7169216   -0.2857890 
H     2.8263566   -2.7788104   -1.8670094 
H     3.2796151   -2.3453324   -0.3221200 
