24
Energy =
C     0.0331780    2.3596978   -1.6925733 
C    -0.4506833    2.6729867   -0.4609321 
C    -0.1274641    1.8999345    0.6005919 
C     0.8375681    1.2786270   -1.8546977 
C     1.1716161    0.5052924   -0.7845004 
C     0.6776813    0.8188262    0.4444015 
O    -1.2817372    3.7797713   -0.2593532 
H    -1.4804402    4.3073674   -1.1024051 
H     0.9161072    0.2011615    1.3064763 
H     1.2110213    1.0367550   -2.8463096 
H    -0.2243433    2.9711986   -2.5505026 
H    -0.5258991    2.1558455    1.5762332 
C     2.0507028   -0.7129305   -0.9665876 
C     1.2156859   -1.9739198   -1.2664232 
H     2.6680332   -0.8799204   -0.0546712 
H     2.7751207   -0.5272493   -1.7920360 
C     2.1145714   -3.1203906   -1.7341391 
O     2.6663383   -3.9914701   -0.8028232 
O     2.4517771   -3.2753947   -3.0787059 
H     2.0275684   -2.5736005   -3.6663470 
N     0.4243092   -2.3265858   -0.0729590 
H     0.5137262   -1.7515128   -2.1026705 
H    -0.1816934   -3.1532595   -0.2926791 
H     1.0659715   -2.6386590    0.6962550 
