24
Energy =
C    -0.0292288    2.4267477   -1.0344685 
C    -0.2839771    2.4945894    0.2924631 
C     0.2102370    1.5507894    1.1259211 
C     0.7192801    1.4101302   -1.5336363 
C     1.2225727    0.4567578   -0.7014042 
C     0.9579240    0.5304073    0.6336853 
O    -1.0512640    3.5377108    0.8004962 
H    -2.0369029    3.2991952    0.7724812 
H     1.3305832   -0.2317938    1.3136666 
H     0.9024562    1.3499340   -2.6035374 
H    -0.4332562    3.1905579   -1.6898822 
H    -0.0035535    1.6147897    2.1876974 
C     2.0330110   -0.6956198   -1.2613156 
C     1.1457821   -1.8029615   -1.8584720 
H     2.6848181   -1.1276031   -0.4696732 
H     2.7192752   -0.3170314   -2.0507190 
C     0.1651521   -2.3615359   -0.8124204 
O    -1.1276032   -1.8568572   -0.7167746 
O     0.5698060   -3.3284065    0.1096882 
H     1.5275033   -3.6126843   -0.0311226 
N     0.5023067   -1.2798206   -3.0846451 
H     1.8152946   -2.6488686   -2.1390976 
H     0.8644274   -1.7972158   -3.9203225 
H    -0.5349557   -1.4391921   -3.0722647 
