24
Energy =
C    -0.1818565    2.3131661   -1.0676882 
C    -0.0585369    2.5326233    0.2683720 
C     0.6713521    1.6783175    1.0207549 
C     0.4301850    1.2470729   -1.6439939 
C     1.1719956    0.3904476   -0.8897587 
C     1.2821353    0.6092375    0.4502206 
O    -0.6705298    3.6249444    0.8919714 
H    -1.2221288    4.2067630    0.2718958 
H     1.8500059   -0.0752795    1.0763318 
H     0.3115790    1.0697148   -2.7096717 
H    -0.7751015    2.9879300   -1.6738231 
H     0.7560650    1.8548365    2.0880831 
C     1.8428116   -0.8107019   -1.5295798 
C     0.8544188   -1.9614279   -1.8111362 
H     2.6586538   -1.1888394   -0.8725823 
H     2.3309723   -0.5008904   -2.4786859 
C     0.1424710   -2.4121735   -0.5369821 
O    -1.2342696   -2.6132787   -0.5061250 
O     0.8895637   -2.7045826    0.5990905 
H     0.2594787   -3.0062629    1.3317228 
N    -0.0644861   -1.5502598   -2.8925498 
H     1.4383426   -2.8527356   -2.1373438 
H     0.4416487   -1.6020027   -3.8074814 
H    -0.8554579   -2.2370184   -2.9624796 
