24
Energy =
C     0.9317752    2.5810950   -1.0162523 
C     0.6235702    2.7162907    0.2940001 
C     0.6566893    1.6393790    1.1120659 
C     1.2899143    1.3685082   -1.5108113 
C     1.3414224    0.2822528   -0.6893301 
C     1.0117556    0.4231336    0.6246433 
O     0.2616095    3.9612573    0.7980778 
H     1.0792537    4.4793877    1.1000223 
H     1.0250172   -0.4351364    1.2919603 
H     1.5202111    1.2665766   -2.5700651 
H     0.8773633    3.4499858   -1.6633598 
H     0.3892697    1.7580826    2.1570145 
C     1.7161780   -1.0768892   -1.2402148 
C     0.4798641   -1.8476122   -1.7605888 
H     2.2187945   -1.6729746   -0.4466960 
H     2.4613555   -0.9688986   -2.0611766 
C    -0.1931377   -1.1288963   -2.9165357 
O     0.5405810   -0.7489831   -4.0375663 
O    -1.5366044   -0.7873067   -2.8379061 
H    -1.8144335   -0.3459282   -3.7046149 
N     0.8723173   -3.2149580   -2.1429770 
H    -0.2933221   -1.9038100   -0.9586557 
H     1.5908019   -3.1791009   -2.9060950 
H     1.2958204   -3.7105799   -1.3240857 
