24
Energy =
C    -0.2582908    2.1061617   -1.8745299 
C    -0.6843210    2.5372607   -0.6647870 
C    -0.2164135    1.9567491    0.4640266 
C     0.6456237    1.0970568   -1.9596592 
C     1.1298128    0.5152400   -0.8270909 
C     0.6880271    0.9475000    0.3872460 
O    -1.6129385    3.5698116   -0.5815091 
H    -1.1462401    4.4694835   -0.5472930 
H     1.0476885    0.4824764    1.3023533 
H     0.9755423    0.7571718   -2.9383951 
H    -0.6526121    2.5716286   -2.7713724 
H    -0.5771896    2.3019184    1.4273123 
C     2.1207581   -0.6237645   -0.9214863 
C     1.4299173   -1.9786151   -1.1774851 
H     2.7251458   -0.7029219    0.0110143 
H     2.8467314   -0.4098091   -1.7379145 
C     2.4511272   -3.0563833   -1.5149300 
O     2.0464357   -4.1984127   -2.1958562 
O     3.7838927   -2.9296756   -1.1366088 
H     4.2845767   -3.7605562   -1.4254380 
N     0.6309480   -2.3482122    0.0051132 
H     0.7707146   -1.8952051   -2.0731066 
H    -0.2360834   -1.7616962    0.0249761 
H     0.2936887   -3.3360555   -0.1036270 
