24
Energy =
C     0.4981427    2.6254001   -1.1043638 
C    -0.1622576    2.6879460    0.0827519 
C    -0.1387545    1.6241615    0.9173890 
C     1.1790247    1.5027023   -1.4479056 
C     1.2119805    0.4348285   -0.6032665 
C     0.5414738    0.4995172    0.5796125 
O    -0.8729102    3.8295394    0.4674625 
H    -0.8467307    4.5808384   -0.2133057 
H     0.5373863   -0.3505209    1.2568842 
H     1.6954827    1.4643609   -2.4040044 
H     0.4806029    3.4714602   -1.7828144 
H    -0.6761927    1.6837911    1.8573709 
C     1.9522671   -0.8251778   -0.9955258 
C     1.0417608   -1.7951048   -1.7722586 
H     2.3565583   -1.3333879   -0.0912493 
H     2.8355217   -0.5560711   -1.6183795 
C     1.8555862   -2.9135546   -2.3995440 
O     2.4709394   -3.8717780   -1.6009359 
O     2.0208331   -2.9638636   -3.7770047 
H     2.5926172   -3.7656702   -4.0114636 
N    -0.0100336   -2.3058533   -0.8732665 
H     0.5698558   -1.2458605   -2.6210492 
H    -0.6994956   -2.8570444   -1.4378213 
H     0.4102350   -2.9772835   -0.1850344 
