24
Energy =
C    -0.4208311    1.1958476    1.2486018 
C    -0.6447562    2.3424924    0.5668779 
C    -0.0195164    2.5621307   -0.6121491 
C     0.4419627    0.2688316    0.7588158 
C     1.0857804    0.4866593   -0.4226459 
C     0.8433675    1.6391998   -1.1086080 
O    -1.5254737    3.2919656    1.0740080 
H    -1.0435074    3.9383927    1.6886294 
H     1.3294327    1.8229902   -2.0631785 
H     0.6076019   -0.6543669    1.3098910 
H    -0.9460099    1.0255296    2.1825472 
H    -0.2219735    3.4774450   -1.1587339 
C     2.0428948   -0.5501933   -0.9806135 
C     1.3504416   -1.5508999   -1.9319259 
H     2.5313268   -1.1079521   -0.1501119 
H     2.8661683   -0.0413070   -1.5275929 
C     0.3135627   -2.4132585   -1.2131036 
O    -0.7729297   -2.9405274   -1.9035845 
O     0.5071838   -2.7876019    0.1148352 
H    -0.2322713   -3.4256000    0.3852644 
N     0.7905870   -0.8156207   -3.0825042 
H     2.1194097   -2.2704515   -2.2933898 
H     1.5754208   -0.4965461   -3.6963848 
H     0.2134380   -1.4678411   -3.6678840 
