24
Energy =
C     0.4215532    2.1048968    0.6954174 
C    -0.4887204    2.6076808   -0.1808831 
C    -0.5892859    2.0743501   -1.4194836 
C     1.2250101    1.0743451    0.3284556 
C     1.1268344    0.5392745   -0.9199134 
C     0.2110830    1.0436938   -1.7917651 
O    -1.3321374    3.6682746    0.1652487 
H    -1.1955040    4.0145643    1.1087070 
H     0.1134532    0.6264051   -2.7908685 
H     1.9433241    0.6790951    1.0421920 
H     0.5074043    2.5247300    1.6918408 
H    -1.3203718    2.4834446   -2.1082804 
C     2.0078217   -0.6205853   -1.3301482 
C     1.2625568   -1.9790777   -1.2633676 
H     2.9253777   -0.6637335   -0.7017155 
H     2.3696395   -0.4358795   -2.3681473 
C     2.0805951   -3.1152898   -1.8881254 
O     3.0653207   -2.8265323   -2.8257967 
O     1.8029070   -4.4520279   -1.6118073 
H     1.0744033   -4.5268690   -0.9167008 
N     0.8813904   -2.2834877    0.1309900 
H     0.3437241   -1.9208605   -1.8922830 
H     1.7090898   -2.1861185    0.7682064 
H     0.1513902   -1.6058646    0.4583009 
