24
Energy =
C    -1.0561612    1.2794845    0.5436784 
C    -0.8008819    2.4283935   -0.1237480 
C     0.3237426    2.5441616   -0.8668666 
C    -0.1886782    0.2380445    0.4652332 
C     0.9463853    0.3479164   -0.2799107 
C     1.1955576    1.5069023   -0.9507774 
O    -1.6922280    3.4932771   -0.0412283 
H    -2.3996272    3.4258449   -0.7645149 
H     2.0944115    1.6123535   -1.5536220 
H    -0.4082931   -0.6849255    0.9976076 
H    -1.9583903    1.2043710    1.1411762 
H     0.5205522    3.4739586   -1.3902989 
C     1.9077678   -0.8149560   -0.3856227 
C     1.6442492   -1.6719584   -1.6400476 
H     1.8381492   -1.4656963    0.5165477 
H     2.9514658   -0.4268377   -0.4025028 
C     2.7762133   -2.6609120   -1.8658718 
O     3.3952522   -3.3021308   -0.7973185 
O     3.1854088   -2.9488858   -3.1614214 
H     3.9277212   -3.6363751   -3.1251641 
N     0.3449362   -2.3567344   -1.4960244 
H     1.6418774   -1.0193397   -2.5455611 
H    -0.4233084   -1.6698533   -1.6793963 
H     0.2520580   -3.0864574   -2.2446831 
