24
Energy =
C     0.6519982    2.2705783    0.2908732 
C    -0.1469975    2.7440892   -0.7024126 
C    -0.2406545    2.0629955   -1.8668706 
C     1.3523718    1.1216560    0.1136760 
C     1.2630901    0.4381647   -1.0606211 
C     0.4567259    0.9131833   -2.0494861 
O    -0.8833633    3.9233434   -0.5527232 
H    -0.7564387    4.3785454    0.3448666 
H     0.3654784    0.3781051   -2.9913077 
H     1.9797086    0.7489209    0.9206492 
H     0.7303067    2.8077975    1.2300138 
H    -0.8830217    2.4510683   -2.6499887 
C     2.0265947   -0.8537337   -1.2542921 
C     1.1669056   -2.0915774   -0.9232028 
H     2.9393258   -0.8694433   -0.6152500 
H     2.3925807   -0.9105834   -2.3044296 
C     1.8467714   -3.3800150   -1.3782246 
O     3.1766065   -3.3901060   -1.7794791 
O     1.1297566   -4.5689954   -1.3993501 
H     0.5312444   -4.5831697   -2.2114421 
N     0.8936418   -2.1102983    0.5260526 
H     0.2091577   -2.0375575   -1.4905083 
H     0.1238883   -1.4330812    0.7370609 
H     0.5269888   -3.0554272    0.8028754 
