24
Energy =
C     0.3881499    1.6021636    1.0562708 
C     0.5143408    2.7181143    0.2908809 
C     1.0045020    2.6148410   -0.9647801 
C     0.7515874    0.3916503    0.5623181 
C     1.2365026    0.2825134   -0.7063383 
C     1.3666578    1.4063899   -1.4655267 
O     0.1521441    3.9814343    0.7695220 
H    -0.2238128    3.9736552    1.7115674 
H     1.7618201    1.3493026   -2.4761700 
H     0.6446256   -0.4907746    1.1884843 
H    -0.0049367    1.6743873    2.0644422 
H     1.1025938    3.5141858   -1.5630747 
C     1.6415164   -1.0714005   -1.2614729 
C     0.4453262   -1.9509550   -1.7151447 
H     2.2232111   -1.6202126   -0.4859444 
H     2.3377709   -0.9456019   -2.1203385 
C    -0.4481630   -2.3576620   -0.5508559 
O    -1.5659881   -1.6074753   -0.1995236 
O    -0.1030870   -3.4566031    0.2238185 
H    -0.8044990   -3.5848885    0.9424005 
N    -0.2855293   -1.3493717   -2.8585748 
H     0.8669638   -2.9222419   -2.0633312 
H    -1.3021435   -1.2203582   -2.6319936 
H     0.0649410   -0.3943517   -3.0953591 
