24
Energy =
C     0.3127363    2.4219972   -1.3059845 
C     0.1430998    2.7716540   -0.0101775 
C     0.5628714    1.9445854    0.9743935 
C     0.8954300    1.2374933   -1.6224269 
C     1.3142186    0.3953828   -0.6365888 
C     1.1464955    0.7583570    0.6661988 
O    -0.4542272    3.9866559    0.3101946 
H    -1.4609865    3.8853784    0.3766313 
H     1.4813712    0.1071055    1.4697569 
H     1.0291617    0.9722250   -2.6679142 
H    -0.0162447    3.1019118   -2.0843455 
H     0.4326230    2.2426797    2.0095526 
C     1.9604612   -0.9269144   -0.9908418 
C     0.9309954   -1.9601933   -1.5156777 
H     2.5002732   -1.3593090   -0.1161118 
H     2.7414049   -0.7395732   -1.7622784 
C     1.6382553   -3.1539367   -2.1352488 
O     2.4463295   -3.9784006   -1.3626732 
O     1.5589290   -3.3779912   -3.5049183 
H     2.1570987   -2.7224101   -3.9845401 
N     0.0156696   -2.4025080   -0.4414040 
H     0.3468893   -1.5048275   -2.3498170 
H     0.1516777   -1.8776767    0.4529295 
H    -0.9780732   -2.2521251   -0.7348830 
