24
Energy =
C     0.1094303    2.3909716   -1.0782476 
C     0.0364537    2.6119661    0.2540133 
C     0.5660563    1.7168282    1.1186293 
C     0.7090035    1.2687761   -1.5512095 
C     1.2415481    0.3591308   -0.6880863 
C     1.1647643    0.5908655    0.6533328 
O    -0.5778959    3.7634703    0.7351217 
H    -1.5707528    3.6046591    0.8704644 
H     1.5750463   -0.1216578    1.3633185 
H     0.7464976    1.0925331   -2.6226760 
H    -0.3198178    3.1179304   -1.7590549 
H     0.5031414    1.9078303    2.1848044 
C     1.8881300   -0.9092970   -1.2133197 
C     0.8608531   -1.9213539   -1.7651651 
H     2.4881743   -1.3989512   -0.4145711 
H     2.6107071   -0.6425561   -2.0155733 
C    -0.2507245   -2.2129197   -0.7595710 
O    -1.4626613   -1.5361015   -0.8100653 
O    -0.0393901   -3.1375581    0.2547767 
H     0.5326241   -2.7161459    0.9702488 
N     0.3579092   -1.4344959   -3.0657222 
H     1.3744540   -2.9010954   -1.9110620 
H     1.0590469   -1.6553276   -3.8114812 
H    -0.5197953   -1.9502770   -3.3235539 
