24
Energy =
C     0.1789741    1.6520807    1.0133250 
C     0.2803329    2.7367043    0.1992781 
C     0.8799361    2.6136497   -1.0066633 
C     0.6778013    0.4533232    0.6180088 
C     1.2884276    0.3306995   -0.5923957 
C     1.3813259    1.4176828   -1.4066559 
O    -0.2251072    3.9850832    0.5750232 
H    -0.6575163    3.9983762    1.4923043 
H     1.8515648    1.3366525   -2.3851399 
H     0.5855505   -0.4062949    1.2771195 
H    -0.3029740    1.7410720    1.9809870 
H     0.9501133    3.4853320   -1.6488354 
C     1.8180824   -1.0114508   -1.0473243 
C     0.7123847   -1.8763018   -1.7002535 
H     2.2490094   -1.5513056   -0.1748601 
H     2.6545745   -0.8728944   -1.7720936 
C     0.1194287   -1.1991121   -2.9279429 
O     0.9166498   -0.8915946   -4.0242160 
O    -1.2083122   -0.7883216   -2.9239700 
H    -1.2838650    0.0635039   -2.3878668 
N     1.2385859   -3.2145443   -2.0462030 
H    -0.1341959   -1.9798437   -0.9807836 
H     2.2326593   -3.3563961   -1.7478162 
H     0.6656953   -3.9588697   -1.5828465 
