24
Energy =
C    -0.6651089    0.5587400    1.1140120 
C    -1.1339077    1.7178196    0.5789725 
C    -0.5106745    2.2596076   -0.4920136 
C     0.4231362   -0.0492806    0.5774130 
C     1.0562162    0.4992848   -0.4963053 
C     0.5788495    1.6572263   -1.0308372 
O    -2.2511845    2.3705179    1.1096707 
H    -2.6691888    1.8969925    1.9031160 
H     1.0608408    2.1059732   -1.8963197 
H     0.7839018   -0.9774536    1.0130267 
H    -1.1604593    0.1149654    1.9709489 
H    -0.8971733    3.1802470   -0.9155726 
C     2.2584428   -0.1920500   -1.1054877 
C     1.8441134   -1.3295507   -2.0734508 
H     2.8859527   -0.6068793   -0.2859809 
H     2.8988098    0.5412152   -1.6484595 
C     1.0719707   -0.8135382   -3.2802780 
O     1.3846514    0.4073558   -3.8674616 
O     0.0852841   -1.5999344   -3.8581088 
H     0.5375938   -2.3052058   -4.4207798 
N     3.0283981   -2.0965576   -2.5157814 
H     1.1375208   -2.0047735   -1.5353523 
H     3.9008304   -1.8239345   -2.0040547 
H     2.8791702   -3.1168866   -2.3328069 
