24
Energy =
C    -0.0787299    2.2823472   -1.6655042 
C    -0.5483550    2.6127592   -0.4402674 
C    -0.1665259    1.9016017    0.6454168 
C     0.7706358    1.2334493   -1.8106060 
C     1.1609283    0.5137942   -0.7218200 
C     0.6830706    0.8518358    0.5086303 
O    -1.4193224    3.6879923   -0.2955278 
H    -2.3819338    3.3867055   -0.3994116 
H     0.9748630    0.2833182    1.3887810 
H     1.1379045    0.9771778   -2.8014195 
H    -0.3863282    2.8671346   -2.5256378 
H    -0.5448631    2.1808275    1.6232591 
C     2.0950972   -0.6648860   -0.8844536 
C     1.3490277   -1.9468698   -1.3064761 
H     2.6463712   -0.8684465    0.0620344 
H     2.8726236   -0.4133985   -1.6405596 
C     2.3282580   -3.0415563   -1.7081505 
O     1.8967411   -4.0879530   -2.5147505 
O     3.6473360   -3.0257303   -1.2666516 
H     4.1178326   -3.8506936   -1.6166674 
N     0.4758266   -2.3863572   -0.2028449 
H     0.7393093   -1.7382830   -2.2165433 
H    -0.3610649   -1.7590446   -0.1622806 
H     0.0974472   -3.3402304   -0.4229877 
