24
Energy =
C     0.7160263    2.4526688   -0.0649875 
C    -0.4394689    2.2537216    0.6102293 
C    -0.9245007    1.0008175    0.7671895 
C     1.4008386    1.3957315   -0.5713431 
C     0.9267651    0.1291503   -0.4050104 
C    -0.2480758   -0.0608486    0.2592135 
O    -1.1353630    3.3376925    1.1356183 
H    -0.8377918    3.5303255    2.0854490 
H    -0.6544845   -1.0612694    0.3829926 
H     2.3214482    1.5734728   -1.1235615 
H     1.0818748    3.4643960   -0.2046312 
H    -1.8621913    0.8580803    1.2939136 
C     1.6738311   -1.0519253   -0.9895547 
C     1.1720047   -1.4066739   -2.4103052 
H     1.5490767   -1.9296710   -0.3178786 
H     2.7659713   -0.8355648   -1.0270117 
C     1.4256270   -0.2652744   -3.3898031 
O     0.3802138    0.2519762   -4.1397441 
O     2.6950329    0.2839864   -3.5318720 
H     3.2607136   -0.3321368   -4.0945629 
N     1.7478940   -2.6966995   -2.8639193 
H     0.0631797   -1.5214392   -2.3794385 
H     2.3783612   -2.5766502   -3.6916957 
H     2.3132905   -3.1755688   -2.1240344 
