24
Energy =
C     1.4116864    1.1885444    1.5208529 
C     1.0007212    2.3731257    1.0144002 
C     0.7773903    2.4918906   -0.3214683 
C     1.6019629    0.1208092    0.7052396 
C     1.3835511    0.2350911   -0.6337239 
C     0.9661360    1.4271631   -1.1422019 
O     0.8147369    3.4487575    1.8879024 
H     0.5088817    4.3045478    1.4375246 
H     0.7819914    1.5346564   -2.2088325 
H     1.9293739   -0.8237382    1.1311350 
H     1.5855208    1.1065391    2.5886552 
H     0.4465568    3.4385367   -0.7344326 
C     1.5741462   -0.9551668   -1.5476929 
C     0.2291487   -1.6345484   -1.9006997 
H     2.2696949   -1.6952101   -1.0922482 
H     2.0747652   -0.6107626   -2.4827372 
C     0.3991381   -2.6430362   -3.0315744 
O    -0.0633199   -2.3127247   -4.2993698 
O     1.0730713   -3.8520876   -2.8585860 
H     1.3513136   -3.9906222   -1.9008167 
N    -0.3845603   -2.2438901   -0.7043238 
H    -0.4700191   -0.8713505   -2.3199560 
H     0.3231347   -2.7773257   -0.1470244 
H    -0.7612472   -1.4906082   -0.0814785 
