24
Energy =
C     0.8910338    2.6477426   -1.1616406 
C     0.0832620    2.7936732   -0.0859710 
C    -0.1308236    1.7490742    0.7464617 
C     1.4965795    1.4571389   -1.4036411 
C     1.2972998    0.4046652   -0.5616613 
C     0.4718545    0.5557407    0.5115640 
O    -0.5373612    4.0148427    0.1575131 
H     0.0519017    4.6077845    0.7315748 
H     0.2813413   -0.2808692    1.1797244 
H     2.1366735    1.3516345   -2.2759764 
H     1.0409011    3.4894086   -1.8290495 
H    -0.7941125    1.8739632    1.5957964 
C     1.9509783   -0.9311694   -0.8420734 
C     1.0660252   -1.8203817   -1.7356794 
H     2.1614103   -1.4649750    0.1125315 
H     2.9397058   -0.7669292   -1.3272362 
C     1.8355125   -3.0428866   -2.2493180 
O     2.9337389   -3.5249566   -1.5458453 
O     1.4213986   -3.7254793   -3.3927440 
H     0.5932858   -3.3149722   -3.7988121 
N    -0.1454076   -2.1902427   -0.9741283 
H     0.7845884   -1.2274337   -2.6375011 
H    -0.9946091   -1.8253945   -1.4667074 
H    -0.2588767   -3.2308715   -0.9008528 
