24
Energy =
C    -0.4325146    2.3953941   -1.2403207 
C    -1.0593960    2.2613169   -0.0410324 
C    -0.6391332    1.3169962    0.8311369 
C     0.6113729    1.5875785   -1.5580366 
C     1.0403621    0.6417780   -0.6775741 
C     0.4045170    0.5076001    0.5189415 
O    -2.1357001    3.0784014    0.3181361 
H    -2.3975849    3.7530578   -0.3921779 
H     0.7211684   -0.2524274    1.2300288 
H     1.0982480    1.6921885   -2.5252598 
H    -0.7674278    3.1459069   -1.9484454 
H    -1.1524570    1.2150655    1.7811627 
C     2.1947547   -0.2707176   -1.0384681 
C     1.7416094   -1.5581256   -1.7540279 
H     2.7638900   -0.5402906   -0.1198562 
H     2.9132930    0.2676685   -1.6950912 
C     0.8381537   -2.4178925   -0.8723303 
O     1.3472902   -2.9813955    0.2920597 
O    -0.4985355   -2.6248602   -1.1944310 
H    -0.9168122   -3.2137513   -0.4859873 
N     1.1480675   -1.2097745   -3.0604785 
H     2.6517979   -2.1767678   -1.9292178 
H     1.0734845   -2.0851668   -3.6313048 
H     0.1536969   -0.9053258   -2.9128139 
