24
Energy =
C     0.9210378    2.7134447   -0.6450758 
C    -0.1232367    2.7059143    0.2152175 
C    -0.5133912    1.5480295    0.7958154 
C     1.5756281    1.5599127   -0.9333813 
C     1.1886383    0.3900174   -0.3527862 
C     0.1361421    0.3901391    0.5119980 
O    -0.7932751    3.8896332    0.5078925 
H    -1.5558206    4.0378956   -0.1440130 
H    -0.1905406   -0.5341368    0.9814639 
H     2.4074130    1.5800023   -1.6338731 
H     1.2267791    3.6494929   -1.0993706 
H    -1.3478343    1.5574345    1.4890621 
C     1.8973367   -0.9039184   -0.6882668 
C     1.1512330   -1.7044714   -1.7751598 
H     1.9926154   -1.5181735    0.2336444 
H     2.9391453   -0.7072430   -1.0335926 
C     1.1076786   -0.9598626   -3.1054391 
O    -0.0563436   -0.9757338   -3.8666462 
O     2.2249472   -0.2865064   -3.5908527 
H     2.0043910    0.0954375   -4.5007775 
N     1.8023229   -3.0179864   -1.9152982 
H     0.0898398   -1.8468419   -1.4633794 
H     1.6479136   -3.5754186   -1.0423747 
H     1.3345793   -3.5543063   -2.6854172 
