24
Energy =
C     0.0002003    2.4792010   -1.4058885 
C    -0.2962299    2.6852941   -0.0952483 
C     0.1540551    1.8152102    0.8369329 
C     0.7439557    1.4070498   -1.7762072 
C     1.2018968    0.5313376   -0.8388263 
C     0.8986915    0.7409356    0.4724375 
O    -1.0616021    3.7794551    0.3202689 
H    -1.3637555    4.3835329   -0.4363907 
H     1.2454521    0.0491207    1.2372860 
H     0.9662377    1.2528503   -2.8287011 
H    -0.3588929    3.1685031   -2.1619304 
H    -0.0922769    1.9891115    1.8789799 
C     2.0135669   -0.6804719   -1.2524922 
C     1.1254379   -1.8929402   -1.6141562 
H     2.7125830   -0.9652225   -0.4327586 
H     2.6574882   -0.4205780   -2.1213141 
C     0.2741121   -2.3424464   -0.4307422 
O     0.8794223   -2.6255347    0.7870149 
O    -1.1011230   -2.4898120   -0.5443602 
H    -1.5262029   -1.5962413   -0.3465701 
N     0.3182869   -1.5679903   -2.8042893 
H     1.7891383   -2.7585647   -1.8412620 
H     0.9543428   -1.4404345   -3.6259436 
H    -0.2973960   -2.3843558   -3.0374815 
