24
Energy =
C     0.7264719    2.4849124   -0.7058525 
C     0.0453886    2.4950554    0.4709460 
C    -0.0913154    1.3479893    1.1741373 
C     1.2660510    1.3301660   -1.1715658 
C     1.1305395    0.1747678   -0.4635231 
C     0.4456643    0.1898367    0.7132024 
O    -0.5236622    3.6668817    0.9791464 
H    -0.3785591    4.4841636    0.3959833 
H     0.3213719   -0.7215017    1.2925927 
H     1.8067684    1.3370909   -2.1151878 
H     0.8404627    3.3997924   -1.2774470 
H    -0.6376041    1.3706186    2.1110625 
C     1.7218129   -1.1140079   -0.9913106 
C     0.8943575   -1.7106311   -2.1546848 
H     1.8226531   -1.8714820   -0.1809790 
H     2.7606666   -0.9105898   -1.3393464 
C     1.6577859   -2.8432678   -2.8138964 
O     2.1707513   -2.6878366   -4.0959374 
O     1.9161997   -4.0154200   -2.1128145 
H     2.4296588   -4.6457954   -2.7156773 
N    -0.4242355   -2.1686090   -1.6803435 
H     0.7499476   -0.9439214   -2.9511069 
H    -0.2979517   -2.9248353   -0.9636675 
H    -0.9505970   -1.3799469   -1.2391198 
