24
Energy =
C     0.4549552    2.6759871   -0.9761159 
C    -0.1060279    2.6353722    0.2614346 
C     0.0020079    1.5132462    1.0079319 
C     1.1206443    1.5970468   -1.4586504 
C     1.2335524    0.4656837   -0.7072813 
C     0.6685247    0.4315166    0.5315204 
O    -0.7960785    3.7306635    0.7898738 
H    -0.8466084    4.5281009    0.1652142 
H     0.7364871   -0.4637085    1.1442747 
H     1.5594866    1.6457283   -2.4515615 
H     0.3717590    3.5703533   -1.5837516 
H    -0.4562553    1.4915968    1.9907584 
C     1.9686279   -0.7450662   -1.2489520 
C     1.0388793   -1.7715333   -1.9436162 
H     2.5177219   -1.2478337   -0.4207720 
H     2.7519220   -0.4201605   -1.9689128 
C     0.0697860   -2.4274577   -0.9681499 
O     0.4521616   -3.5796078   -0.2891744 
O    -1.1568899   -1.8440578   -0.6670230 
H    -1.6532875   -2.4406755   -0.0193175 
N     0.3545780   -1.1760121   -3.1066203 
H     1.6765407   -2.6051426   -2.3156105 
H    -0.3644201   -0.4845182   -2.7826023 
H     1.0400573   -0.6667219   -3.7115595 
