24
Energy =
C     0.4154045    2.5957273   -1.2816103 
C     0.4269136    2.8609433    0.0448997 
C     0.8937415    1.9372606    0.9158838 
C     0.8862365    1.4090941   -1.7443282 
C     1.3714044    0.4794018   -0.8737029 
C     1.3626669    0.7471865    0.4617832 
O    -0.0527618    4.0794916    0.5148682 
H     0.6861741    4.7736919    0.5347475 
H     1.7254172    0.0105223    1.1748163 
H     0.8568848    1.2013873   -2.8133448 
H     0.0151780    3.3380739   -1.9639307 
H     0.8811843    2.1557257    1.9785865 
C     1.8706988   -0.8576698   -1.3789544 
C     0.7318179   -1.8874446   -1.4977098 
H     2.6459368   -1.2576368   -0.6873255 
H     2.3777042   -0.7388646   -2.3633279 
C    -0.2796811   -1.4964539   -2.5785424 
O     0.1781919   -1.1001375   -3.8304996 
O    -1.6546009   -1.5396556   -2.3536767 
H    -1.8834237   -1.8688750   -1.4277047 
N     1.3278477   -3.2070390   -1.7576755 
H     0.2014830   -1.9257647   -0.5189191 
H     0.5732760   -3.9333046   -1.7189616 
H     1.7066408   -3.2333260   -2.7363904 
