24
Energy =
C     1.6702299    1.6617009    1.2004472 
C     1.0946593    2.6989906    0.5495497 
C     0.7358513    2.5684123   -0.7483444 
C     1.8827384    0.4858016    0.5564365 
C     1.5245860    0.3471765   -0.7504274 
C     0.9454447    1.3957394   -1.3991026 
O     0.8774682    3.9027474    1.2126730 
H    -0.0311486    3.9060660    1.6627402 
H     0.6517317    1.3045885   -2.4416274 
H     2.3398404   -0.3426222    1.0928627 
H     1.9610042    1.7833778    2.2382735 
H     0.2841759    3.4108920   -1.2613952 
C     1.7453007   -0.9649343   -1.4695393 
C     0.4670531   -1.8289334   -1.5021604 
H     2.5616056   -1.5468830   -0.9803769 
H     2.0983277   -0.7539277   -2.5041617 
C     0.6300306   -2.9872387   -2.4766714 
O     1.5088343   -4.0277775   -2.2070342 
O    -0.0557496   -2.9785157   -3.6849048 
H     0.3978385   -2.3379155   -4.3191715 
N     0.1710095   -2.3017841   -0.1370296 
H    -0.3886890   -1.2291367   -1.8929803 
H    -0.1958288   -1.5052433    0.4348794 
H    -0.5985921   -3.0130628   -0.1695697 
