24
Energy =
C    -0.2609955    1.1252416    1.3759065 
C    -0.4438126    2.3309161    0.7750521 
C     0.1453217    2.5803693   -0.4161878 
C     0.5123062    0.1789828    0.7843266 
C     1.1119559    0.4300922   -0.4129830 
C     0.9189061    1.6378261   -1.0119717 
O    -1.2298105    3.3288270    1.3587826 
H    -1.6560706    3.0595561    2.2388845 
H     1.3738188    1.8526391   -1.9752628 
H     0.6434951   -0.7864245    1.2689553 
H    -0.7360816    0.9141703    2.3281503 
H    -0.0154064    3.5433337   -0.8891060 
C     1.9660459   -0.6295332   -1.0839004 
C     1.1601756   -1.5122605   -2.0622560 
H     2.4493616   -1.2756408   -0.3168023 
H     2.7987946   -0.1426174   -1.6365411 
C     0.0896404   -2.3383511   -1.3502906 
O    -1.0683076   -2.7265379   -2.0164298 
O     0.3122363   -2.8177962   -0.0613373 
H    -0.4635335   -3.4132800    0.2041993 
N     0.6124596   -0.6643154   -3.1388385 
H     1.8554754   -2.2627874   -2.5016572 
H     1.3944154   -0.3643425   -3.7659676 
H    -0.0345507   -1.2336200   -3.7375547 
