24
Energy =
C    -0.1702043    1.8045454    0.7198406 
C     0.1349288    2.8225798   -0.1275557 
C     0.9589353    2.5952978   -1.1750055 
C     0.3489929    0.5672473    0.5146910 
C     1.1742213    0.3338221   -0.5444282 
C     1.4803664    1.3600597   -1.3859605 
O    -0.3798924    4.1099629    0.0571643 
H    -1.0013887    4.1945087    0.8540276 
H     2.1444844    1.2039247   -2.2311626 
H     0.0969442   -0.2362814    1.2038290 
H    -0.8298141    1.9775301    1.5633118 
H     1.1955098    3.4168646   -1.8420812 
C     1.7535295   -1.0501342   -0.7744683 
C     0.7709425   -2.0324723   -1.4694232 
H     2.0605792   -1.4793139    0.2070352 
H     2.6879864   -0.9850890   -1.3742928 
C    -0.4981723   -2.2496428   -0.6588034 
O    -0.4101215   -2.8303111    0.6027328 
O    -1.7446429   -1.8533475   -1.1271544 
H    -2.4436197   -2.0957604   -0.4396923 
N     0.4764447   -1.6255346   -2.8605224 
H     1.2601742   -3.0342243   -1.4760206 
H     0.9580084   -0.7403527   -3.1349476 
H     0.7914829   -2.3682419   -3.5269025 
