24
Energy =
C    -0.0998763    1.4934775    1.1539965 
C    -0.6094935    2.3981728    0.2759627 
C    -0.2633400    2.3310516   -1.0297951 
C     0.7526494    0.5295162    0.7217846 
C     1.1061146    0.4648240   -0.5915031 
C     0.5882079    1.3688909   -1.4673556 
O    -1.4908855    3.4024923    0.6874023 
H    -1.6976667    3.3909241    1.6803020 
H     0.8525857    1.3280056   -2.5214224 
H     1.1471871   -0.1954810    1.4302093 
H    -0.3751562    1.5375367    2.2023657 
H    -0.6788406    3.0578648   -1.7196315 
C     2.0402699   -0.6197062   -1.0812079 
C     1.2733668   -1.8184584   -1.6763692 
H     2.6962472   -0.9726173   -0.2535070 
H     2.7223626   -0.1873389   -1.8495672 
C     2.2347613   -2.7441985   -2.4172634 
O     2.2873423   -2.6918451   -3.8040659 
O     3.0935143   -3.6098591   -1.7414816 
H     2.9532451   -3.5548706   -0.7427296 
N     0.5477505   -2.5204516   -0.5992581 
H     0.5544242   -1.4525773   -2.4486996 
H    -0.2742155   -1.9402160   -0.3078012 
H     0.1364920   -3.4085880   -0.9784503 
