24
Energy =
C    -1.5943230    0.5659767    0.1817434 
C    -1.9722663    1.4717323   -0.7486748 
C    -1.0449578    2.0535435   -1.5426365 
C    -0.2830729    0.2460105    0.3288881 
C     0.6593342    0.8259416   -0.4681547 
C     0.2677514    1.7362008   -1.4045689 
O    -3.3158297    1.8007129   -0.8938345 
H    -3.5669954    2.5680503   -0.2804516 
H     0.9988344    2.2163356   -2.0500555 
H     0.0070069   -0.4862651    1.0800900 
H    -2.3522932    0.0963143    0.7998357 
H    -1.3634619    2.7718575   -2.2912853 
C     2.1266900    0.4696646   -0.3097845 
C     2.5067863   -0.9045226   -0.9206514 
H     2.3856946    0.4677389    0.7737614 
H     2.7707021    1.2530093   -0.7675951 
C     1.8153991   -2.0554881   -0.2004832 
O     0.6462351   -2.6235550   -0.6967147 
O     2.2834936   -2.4577264    1.0434586 
H     1.7320417   -3.2411641    1.3719699 
N     2.3474621   -0.9212689   -2.3965992 
H     3.5859363   -1.0712309   -0.7012375 
H     1.6863133   -1.6764760   -2.7013419 
H     1.9461555   -0.0299072   -2.7651538 
