24
Energy =
C    -0.3196170    1.7681212    0.6981354 
C     0.1534914    2.7758016   -0.0707993 
C     1.1221870    2.5334877   -0.9836372 
C     0.1714894    0.5108163    0.5526375 
C     1.1483295    0.2597359   -0.3631292 
C     1.6178802    1.2788023   -1.1355826 
O    -0.3521252    4.0628576    0.0811824 
H    -1.1558280    4.2058211   -0.5203094 
H     2.3937354    1.0979878   -1.8758370 
H    -0.2239374   -0.2941063    1.1687033 
H    -1.0917666    1.9793007    1.4301858 
H     1.4979318    3.3522726   -1.5883708 
C     1.6869677   -1.1422744   -0.5422279 
C     0.9727917   -1.8949612   -1.6827680 
H     1.5770614   -1.7291588    0.3985882 
H     2.7811582   -1.0931114   -0.7430062 
C     1.7149886   -3.1747539   -2.0333452 
O     2.3782445   -3.9120826   -1.0572983 
O     1.7218643   -3.6257521   -3.3465271 
H     2.2383646   -4.4953780   -3.3902982 
N    -0.4214319   -2.1672101   -1.2843508 
H     0.9961769   -1.2784773   -2.6127714 
H    -0.9799808   -1.2873347   -1.3818212 
H    -0.8484407   -2.8442800   -1.9633402 
