24
Energy =
C     0.5464118    2.6424673   -0.8522687 
C     0.1865682    2.6037319    0.4582029 
C     0.3814046    1.4715573    1.1715868 
C     1.1020133    1.5519772   -1.4398656 
C     1.3045753    0.4133306   -0.7201048 
C     0.9334061    0.3771811    0.5889325 
O    -0.3858175    3.7096494    1.0949270 
H    -0.5153726    4.5149929    0.4919065 
H     1.0734172   -0.5259597    1.1776626 
H     1.3729469    1.5924642   -2.4942418 
H     0.3851404    3.5438981   -1.4336737 
H     0.0850532    1.4528121    2.2147668 
C     1.8977192   -0.8158568   -1.3760981 
C     0.8102416   -1.7397824   -1.9577400 
H     2.5035513   -1.3783862   -0.6321827 
H     2.6102539   -0.5322239   -2.1849868 
C     0.0703691   -1.0783672   -3.1251352 
O     0.7710041   -0.3095679   -4.0488068 
O    -1.3013491   -1.2515363   -3.3095757 
H    -1.7104576   -1.8569576   -2.6143842 
N     1.4523891   -2.9966652   -2.3742788 
H     0.0622304   -1.9524597   -1.1590777 
H     1.6996886   -3.5571017   -1.5251846 
H     0.7706342   -3.5777977   -2.9201823 
