24
Energy =
C     0.0329548    2.3723450   -1.0356634 
C    -0.0688251    2.5542075    0.3075768 
C     0.4593021    1.6360630    1.1479477 
C     0.6656369    1.2775828   -1.5294071 
C     1.2029749    0.3536308   -0.6854064 
C     1.0921558    0.5389340    0.6598389 
O    -0.7067948    3.6744181    0.8495998 
H    -1.1062767    4.2973258    0.1561122 
H     1.5030186   -0.1872018    1.3554008 
H     0.7279832    1.1357166   -2.6049914 
H    -0.3953199    3.0990087   -1.7176177 
H     0.3643944    1.7903231    2.2173427 
C     1.9014313   -0.8762121   -1.2367706 
C     0.9241953   -1.8956332   -1.8608824 
H     2.4902042   -1.3798533   -0.4382885 
H     2.6413251   -0.5585679   -2.0039572 
C    -0.2085403   -2.2622029   -0.9045835 
O    -1.4571140   -1.6622721   -1.0037888 
O     0.0141184   -3.1869740    0.1074093 
H     0.5339849   -2.7444950    0.8492699 
N     0.4489884   -1.3730997   -3.1580783 
H     1.4726727   -2.8529491   -2.0271529 
H     1.1786240   -1.5472650   -3.8886810 
H    -0.4062135   -1.9008821   -3.4632701 
