24
Energy =
C     0.3315092    2.2207450    0.3058484 
C    -0.4693601    2.6185180   -0.7086892 
C    -0.4749631    1.9182919   -1.8741594 
C     1.1295938    1.1322442    0.1657169 
C     1.1348194    0.4328224   -1.0016423 
C     0.3207691    0.8276252   -2.0194367 
O    -1.2767957    3.7461610   -0.5275518 
H    -1.8512322    3.9805885   -1.3293572 
H     0.3006334    0.2732852   -2.9540685 
H     1.7563117    0.8192586    0.9971378 
H     0.3223180    2.7820119    1.2339633 
H    -1.1185163    2.2292546   -2.6895398 
C     2.0073957   -0.7939752   -1.1518705 
C     1.2733765   -2.0702602   -0.6936296 
H     2.9445722   -0.6730614   -0.5616818 
H     2.3325948   -0.8943378   -2.2114066 
C     2.0275573   -3.3193474   -1.1250459 
O     3.3182835   -3.5514831   -0.6727391 
O     1.4381961   -4.2303816   -1.9894121 
H     1.4633239   -3.8642141   -2.9289759 
N     1.0773329   -2.0188347    0.7674609 
H     0.2787086   -2.1204443   -1.1962561 
H     0.5254370   -2.8584206    1.0690689 
H     2.0078943   -2.1050315    1.2445545 
