24
Energy =
C     0.0402786    2.3676974   -0.5909621 
C    -0.9841040    1.9692031    0.1981956 
C    -1.0075331    0.7105361    0.6936415 
C     1.0520338    1.5101942   -0.8793323 
C     1.0405689    0.2442340   -0.3762353 
C    -0.0008520   -0.1535838    0.4067406 
O    -2.0215627    2.8483169    0.4891915 
H    -1.8271205    3.3662183    1.3393255 
H    -0.0337206   -1.1648748    0.8037476 
H     1.8652985    1.8413352   -1.5231646 
H     0.0390692    3.3748910   -0.9950132 
H    -1.8422877    0.4003490    1.3136498 
C     2.1490904   -0.7255254   -0.7232273 
C     1.8003060   -1.5843260   -1.9546453 
H     2.3554027   -1.3854991    0.1477962 
H     3.1004616   -0.1777306   -0.9219152 
C     1.6117687   -0.7242799   -3.2015310 
O     2.6168384    0.1299579   -3.6372772 
O     0.4028274   -0.7410096   -3.8841441 
H    -0.2644335   -0.1825336   -3.3735965 
N     2.8675746   -2.5798804   -2.1418123 
H     0.8346304   -2.1118344   -1.7764068 
H     2.8200183   -3.2887278   -1.3731506 
H     2.7017484   -3.1037924   -3.0346724 
