24
Energy =
C     0.0024011    1.2930889    1.3279279 
C    -0.1664623    2.4614087    0.6684659 
C     0.3268303    2.5994157   -0.5910360 
C     0.6635458    0.2625242    0.7423928 
C     1.1690443    0.3984813   -0.5138432 
C     0.9882143    1.5714147   -1.1818307 
O    -0.8517401    3.5003449    1.3061230 
H    -0.9441218    4.3420720    0.7483280 
H     1.3694396    1.6934138   -2.1928700 
H     0.7764744   -0.6762347    1.2783720 
H    -0.4039353    1.1919844    2.3286713 
H     0.1897063    3.5311895   -1.1282519 
C     1.8865771   -0.7573560   -1.1775185 
C     0.8883933   -1.7300876   -1.8401238 
H     2.5068398   -1.2920008   -0.4250714 
H     2.5975519   -0.3648781   -1.9406152 
C     1.5640659   -2.6341414   -2.8720819 
O     1.1021111   -2.6268351   -4.1813433 
O     2.6309917   -3.4708084   -2.5424075 
H     2.8952747   -3.3863132   -1.5739819 
N     0.1770110   -2.4905209   -0.7943603 
H     0.1467630   -1.1278607   -2.4189757 
H    -0.6252501   -3.0038614   -1.2335643 
H     0.8033207   -3.2202480   -0.3789595 
