24
Energy =
C    -0.3855164    1.8875381    0.4260443 
C     0.2241583    2.8420156   -0.3263832 
C     1.2750782    2.5062430   -1.1087290 
C     0.0604652    0.6063237    0.3940048 
C     1.1240641    0.2690364   -0.3859492 
C     1.7248502    1.2260970   -1.1452114 
O    -0.2094377    4.1717662   -0.3166396 
H    -1.0032073    4.3424542    0.2912096 
H     2.5661646    0.9751106   -1.7862559 
H    -0.4438064   -0.1506933    0.9894857 
H    -1.2334797    2.1450241    1.0511566 
H     1.7488513    3.2764991   -1.7075084 
C     1.6080604   -1.1629964   -0.4407698 
C     0.8679368   -1.9690332   -1.5265940 
H     1.4703858   -1.6571595    0.5476956 
H     2.7044924   -1.1805937   -0.6344946 
C     1.5544070   -3.3003811   -1.7823172 
O     1.8940954   -3.6693732   -3.0773340 
O     1.8288363   -4.1668960   -0.7321426 
H     2.2735054   -4.9976139   -1.1020362 
N    -0.5423529   -2.1411474   -1.1298080 
H     0.9199813   -1.4082277   -2.4901403 
H    -1.0587918   -2.6258587   -1.9031047 
H    -0.5878272   -2.7860768   -0.3037148 
