24
Energy =
C    -0.1205787    1.2872070    1.1863605 
C     0.4453519    2.4525068    0.7729322 
C     1.3497117    2.4357077   -0.2322590 
C     0.2226808    0.1136328    0.5966603 
C     1.1396612    0.0953893   -0.4089685 
C     1.6963305    1.2656431   -0.8259383 
O     0.1158094    3.6782958    1.3613371 
H    -0.5774277    3.6165648    2.0980771 
H     2.4165136    1.2749798   -1.6413629 
H    -0.2425337   -0.8094302    0.9325722 
H    -0.8501206    1.2950281    1.9874813 
H     1.7902867    3.3713395   -0.5606982 
C     1.5041965   -1.2083314   -1.0841954 
C     0.4941979   -1.5787105   -2.1960483 
H     1.5385633   -2.0179600   -0.3221833 
H     2.5303153   -1.1468442   -1.5145789 
C     0.4598993   -0.5426332   -3.3089775 
O     1.6145926   -0.2337197   -4.0240609 
O    -0.7224371    0.1285915   -3.5991745 
H    -0.5552655    0.7727915   -4.3606405 
N     0.8061611   -2.9190858   -2.7227539 
H    -0.5373064   -1.5899215   -1.7732760 
H     1.7781598   -2.9302992   -3.1174435 
H     0.7683644   -3.6258682   -1.9511505 
