24
Energy =
C    -1.0682755    1.3345012    0.2957680 
C    -0.4310934    2.5219885    0.1152231 
C     0.8741001    2.5330474   -0.2390242 
C    -0.3963603    0.1674745    0.1256404 
C     0.9204462    0.1773538   -0.2197325 
C     1.5507793    1.3689841   -0.4112703 
O    -1.0931053    3.7423300    0.2837809 
H    -2.0697328    3.6500087    0.5412157 
H     2.5967853    1.4012502   -0.7062685 
H    -0.9206874   -0.7765790    0.2539377 
H    -2.1174422    1.3155192    0.5703759 
H     1.3681025    3.4872986   -0.3867525 
C     1.6647106   -1.1232088   -0.4302448 
C     1.4568415   -1.6673066   -1.8555522 
H     1.3308920   -1.8831079    0.3110253 
H     2.7513253   -0.9685598   -0.2398516 
C     2.4670076   -2.7602200   -2.1649309 
O     2.3548245   -4.0155363   -1.5789316 
O     3.5544491   -2.4873387   -2.9808158 
H     4.1145509   -3.3266946   -3.0632620 
N     0.0624648   -2.1284036   -2.0009719 
H     1.6584594   -0.8506636   -2.5895800 
H    -0.1126596   -2.3528725   -3.0097109 
H    -0.0624905   -3.0320338   -1.4814605 
