24
Energy =
C    -0.1766923    1.5275867    1.0932633 
C     0.0042785    2.5977412    0.2858694 
C     0.7640500    2.4849367   -0.8274151 
C     0.3952993    0.3357579    0.7850359 
C     1.1561949    0.2115517   -0.3389234 
C     1.3392119    1.2965513   -1.1429122 
O    -0.5826409    3.8176966    0.6057795 
H    -1.5127835    3.8838634    0.2068758 
H     1.9487597    1.2218791   -2.0398959 
H     0.2410104   -0.5137328    1.4451051 
H    -0.7786567    1.6368478    1.9888927 
H     0.9102973    3.3543150   -1.4600500 
C     1.7942214   -1.1143723   -0.6965118 
C     1.0757116   -1.8098003   -1.8806848 
H     1.8108995   -1.8043568    0.1784493 
H     2.8617845   -0.9291753   -0.9533446 
C     1.9315111   -2.9447382   -2.4247715 
O     2.0513472   -4.1345443   -1.7200630 
O     2.6685684   -2.7706316   -3.5880283 
H     3.4728509   -2.1938803   -3.3920513 
N    -0.2913994   -2.2508109   -1.5039726 
H     0.9867586   -1.0971865   -2.7329077 
H    -0.3824494   -3.2963217   -1.5517762 
H    -0.5392238   -1.9951323   -0.5212029 
