24
Energy =
C     0.2048482    2.3695405   -1.8290027 
C    -0.5654715    2.6425585   -0.7506467 
C    -0.5287486    1.8301596    0.3304441 
C     1.0243040    1.2874161   -1.8256893 
C     1.0783103    0.4735354   -0.7342577 
C     0.2889231    0.7467433    0.3415524 
O    -1.4040116    3.7530384   -0.7577507 
H    -0.9168490    4.5715471   -0.4101892 
H     0.2990909    0.0937011    1.2105323 
H     1.6313191    1.0753596   -2.7023218 
H     0.1525623    3.0200148   -2.6951237 
H    -1.1646103    2.0492300    1.1815787 
C     1.9732729   -0.7460135   -0.7362714 
C     1.2468942   -1.9781548   -1.3102721 
H     2.3289414   -0.9667870    0.2950396 
H     2.8877729   -0.5324211   -1.3361346 
C     2.2324094   -3.1018866   -1.5922781 
O     2.9817221   -3.0835405   -2.7615582 
O     2.4314628   -4.1243956   -0.6730432 
H     3.1364796   -4.7548933   -1.0340559 
N     0.1686704   -2.3848862   -0.3886236 
H     0.8062353   -1.7098221   -2.2991094 
H    -0.3286667   -3.2139398   -0.7934944 
H     0.5960789   -2.7317398    0.5040690 
