24
Energy =
C     0.9850849    2.4624739   -0.0435572 
C    -0.1088434    2.3137727    0.7501262 
C    -0.6136592    1.0786362    0.9679206 
C     1.5701924    1.3765129   -0.6090988 
C     1.0684544    0.1305980   -0.3833402 
C    -0.0343387   -0.0108974    0.4030711 
O    -0.7334046    3.4097495    1.3530733 
H    -0.3126434    4.3029126    1.1191650 
H    -0.4604584   -0.9945359    0.5816500 
H     2.4355118    1.5145136   -1.2545701 
H     1.3918151    3.4501513   -0.2334034 
H    -1.4913317    0.9766842    1.5969134 
C     1.7035551   -1.0812483   -1.0337408 
C     1.0305613   -1.4306867   -2.3831282 
H     1.6272719   -1.9483318   -0.3411953 
H     2.7909058   -0.9036281   -1.1987800 
C     1.1943145   -0.3004588   -3.3941572 
O     0.0787825    0.2497042   -4.0074051 
O     2.4516622    0.2106557   -3.6955956 
H     2.9240283   -0.4211301   -4.3232975 
N     1.5182052   -2.7369084   -2.8905197 
H    -0.0693315   -1.5179446   -2.2217200 
H     2.0466526   -2.6371727   -3.7893525 
H     2.1588710   -3.2229312   -2.2197715 
