24
Energy =
C    -0.3346421    2.3812611   -0.6049639 
C     0.2947317    2.8096773   -1.7313159 
C     1.2856548    2.0628383   -2.2683038 
C     0.0287169    1.2099292   -0.0238378 
C     1.0236720    0.4530454   -0.5664453 
C     1.6532523    0.8904061   -1.6920203 
O    -0.0552519    4.0111055   -2.3554543 
H    -0.8048812    4.5145505   -1.8933666 
H     2.4560097    0.3074598   -2.1356039 
H    -0.4853286    0.8835456    0.8767206 
H    -1.1294242    2.9747206   -0.1659455 
H     1.7811795    2.4183721   -3.1653158 
C     1.4357518   -0.8576616    0.0770834 
C     1.0614414   -2.0983741   -0.7873084 
H     0.9813938   -0.9674291    1.0887889 
H     2.5351476   -0.7977394    0.2168359 
C     1.5144533   -3.4497297   -0.2065501 
O     0.9041709   -4.6097549   -0.6699583 
O     2.5803896   -3.6000804    0.6871929 
H     3.0481418   -2.7453470    0.9253833 
N    -0.3965642   -2.1349371   -1.0444550 
H     1.6094267   -2.0230330   -1.7545088 
H    -0.9182805   -1.3079983   -0.6745271 
H    -0.5785654   -2.1819455   -2.0749673 
