24
Energy =
C    -0.9852470    1.8366577   -0.2134413 
C    -0.6238249    2.5648901   -1.2941640 
C     0.5010321    2.2334172   -1.9824206 
C    -0.2324378    0.7808165    0.1872487 
C     0.8971745    0.4475789   -0.4956056 
C     1.2571472    1.1776041   -1.5870183 
O    -1.4266024    3.6441041   -1.6762845 
H    -1.0891274    4.1473916   -2.4894713 
H     2.1530443    0.9217114   -2.1484869 
H    -0.5433461    0.1978437    1.0513553 
H    -1.8870780    2.1089558    0.3249911 
H     0.7960277    2.8119466   -2.8508408 
C     1.7322124   -0.7390765   -0.0649928 
C     1.3843081   -2.0191006   -0.8588463 
H     1.5950896   -0.9421958    1.0213834 
H     2.8078287   -0.4756084   -0.1882994 
C     2.4843752   -3.0874990   -0.6589048 
O     3.8141231   -2.6819343   -0.7411819 
O     2.2260303   -4.4588674   -0.5196116 
H     1.2578123   -4.7334569   -0.4640211 
N     0.0176020   -2.4398839   -0.4619232 
H     1.4215689   -1.7897832   -1.9515050 
H    -0.6783907   -1.7885563   -0.8932014 
H    -0.2235903   -3.3825921   -0.8624225 
