24
Energy =
C     0.3740927    1.6886679    1.0672440 
C    -0.5848912    2.3380580    0.3679270 
C    -0.7184544    2.1198575   -0.9601159 
C     1.2150071    0.8297186    0.4365252 
C     1.0980190    0.6167498   -0.9043598 
C     0.1184684    1.2607835   -1.5971407 
O    -1.4406012    3.2240673    1.0153039 
H    -1.0553701    4.1616343    1.0102027 
H    -0.0082938    1.0736007   -2.6598905 
H     1.9719873    0.3051698    1.0148686 
H     0.4559966    1.8561928    2.1354855 
H    -1.5073047    2.6292231   -1.5033385 
C     2.0276857   -0.3506028   -1.6115589 
C     1.3663958   -1.7199900   -1.8828123 
H     2.9466936   -0.5089463   -1.0018955 
H     2.3695185    0.0962184   -2.5702906 
C     0.8634695   -2.3726534   -0.5958843 
O    -0.3966991   -2.9578507   -0.5217087 
O     1.7137189   -2.4739627    0.4996811 
H     1.2198553   -2.9503193    1.2435200 
N     0.3191320   -1.5507959   -2.9103243 
H     2.1472946   -2.4196359   -2.2595328 
H     0.7739786   -1.4210915   -3.8441927 
H    -0.2459315   -2.4316327   -2.9851186 
