24
Energy =
C     0.5225929    2.4804558   -0.1292792 
C    -0.6549342    2.2162793    0.4974233 
C    -1.0292496    0.9332779    0.7029585 
C     1.3193830    1.4622015   -0.5416227 
C     0.9473926    0.1698573   -0.3271354 
C    -0.2372068   -0.0893964    0.2913693 
O    -1.4978093    3.2412431    0.9391651 
H    -1.1571087    4.1732837    0.7295862 
H    -0.5596876   -1.1139836    0.4578996 
H     2.2522996    1.6895872   -1.0529474 
H     0.8278865    3.5060383   -0.3062512 
H    -1.9742871    0.7378442    1.1978439 
C     1.8215342   -0.9686981   -0.8073333 
C     1.4051043   -1.4637898   -2.2127382 
H     1.7564864   -1.8091521   -0.0815058 
H     2.8899574   -0.6529731   -0.8314208 
C     1.5653647   -0.3652307   -3.2557586 
O     0.4611621    0.1039435   -3.9564280 
O     2.8159520    0.1865584   -3.5087623 
H     2.7190521    0.8843401   -4.2356164 
N     2.1421266   -2.7015744   -2.5701578 
H     0.3164312   -1.7037062   -2.2008494 
H     2.7352889   -2.5544374   -3.4238724 
H     2.8062756   -3.0065371   -1.8206956 
