24
Energy =
C     0.8938376    2.5950890   -0.4529994 
C    -0.2270951    2.5752248    0.3044405 
C    -0.6712816    1.4087764    0.8252897 
C     1.5714985    1.4449412   -0.6987771 
C     1.1292783    0.2649187   -0.1806863 
C     0.0011168    0.2544304    0.5840723 
O    -0.9202496    3.7555487    0.5536002 
H    -1.6092158    3.9241952   -0.1712080 
H    -0.3712409   -0.6772323    1.0044741 
H     2.4657269    1.4729753   -1.3167459 
H     1.2423469    3.5387218   -0.8582142 
H    -1.5681667    1.4074503    1.4358071 
C     1.8766656   -1.0229749   -0.4658814 
C     1.3494557   -1.7729763   -1.7093209 
H     1.8200287   -1.6921503    0.4224164 
H     2.9577769   -0.8059175   -0.6140112 
C    -0.1020834   -2.2132185   -1.5596914 
O    -0.5086754   -2.8894391   -0.4147842 
O    -1.0190532   -2.0029604   -2.5825067 
H    -1.9139369   -2.3852731   -2.3043659 
N     1.5926950   -0.9602546   -2.9165203 
H     1.9261413   -2.7221573   -1.7963080 
H     1.3253296   -1.5288348   -3.7567342 
H     0.9164095   -0.1595709   -2.9253873 
