24
Energy =
C     1.0658505    1.8917201    0.7434243 
C     0.3674549    2.7781142   -0.0029221 
C     0.0836475    2.4993038   -1.2958138 
C     1.4784480    0.7183198    0.2001877 
C     1.1960250    0.4295200   -1.1008263 
C     0.4929997    1.3273275   -1.8459364 
O    -0.0554858    3.9795250    0.5567042 
H    -0.9805385    3.8775173    0.9601466 
H     0.2472841    1.1030350   -2.8812836 
H     2.0272239    0.0094172    0.8160904 
H     1.2877473    2.1286594    1.7782039 
H    -0.4743040    3.2214569   -1.8824738 
C     1.6348836   -0.8887625   -1.7045880 
C     0.5944103   -2.0130408   -1.5204685 
H     2.6005447   -1.2050675   -1.2477735 
H     1.8371615   -0.7611393   -2.7908163 
C     0.3391973   -2.3265233   -0.0530315 
O    -0.8464735   -1.9564377    0.5718771 
O     1.3184348   -2.9726165    0.6873251 
H     0.9749268   -3.0990668    1.6311801 
N    -0.6291903   -1.6874432   -2.2797457 
H     1.0370316   -2.9499684   -1.9315240 
H    -1.2569635   -2.5270635   -2.2767735 
H    -1.1684148   -0.9530619   -1.7595970 
