24
Energy =
C    -0.9567028    0.2274310    0.8831496 
C    -1.1531425    1.5240122    0.5489654 
C    -0.2739781    2.1542880   -0.2635279 
C     0.1277293   -0.4413161    0.4144926 
C     1.0253712    0.1911612   -0.3915263 
C     0.8130839    1.4927439   -0.7349280 
O    -2.2650276    2.2062296    1.0329913 
H    -2.0604121    2.6380155    1.9273525 
H     1.5071511    2.0084829   -1.3951603 
H     0.2700069   -1.4845385    0.6850183 
H    -1.6789027   -0.2697022    1.5217195 
H    -0.4506517    3.1886465   -0.5391847 
C     2.2224927   -0.5588376   -0.9340649 
C     1.8868973   -1.3165717   -2.2333584 
H     2.5854411   -1.2858857   -0.1734992 
H     3.0700549    0.1406020   -1.1158568 
C     1.5166469   -0.3780403   -3.3725730 
O     2.3332994    0.6984777   -3.7039257 
O     0.3687119   -0.6158234   -4.1155992 
H     0.2855334    0.0976024   -4.8288564 
N     3.0290646   -2.1834039   -2.5745626 
H     0.9856765   -1.9510864   -2.0591449 
H     2.7902958   -2.7448008   -3.4280804 
H     3.8479890   -1.5840818   -2.8406480 
