24
Energy =
C     0.4276404    2.4831850   -1.4974862 
C    -0.2696095    2.7121571   -0.3607113 
C    -0.2530738    1.8007085    0.6388006 
C     1.1526140    1.3438002   -1.6354941 
C     1.1833430    0.4266273   -0.6285746 
C     0.4698817    0.6593015    0.5087176 
O    -1.0136158    3.8796738   -0.2241514 
H    -0.4476231    4.6208830    0.1741716 
H     0.4660436   -0.0701629    1.3156654 
H     1.7035952    1.1703761   -2.5567201 
H     0.3933554    3.2165202   -2.2960024 
H    -0.8283397    1.9895010    1.5391818 
C     1.9733893   -0.8533425   -0.7892485 
C     1.1875703   -1.9247196   -1.5730276 
H     2.2543770   -1.2699456    0.2052222 
H     2.9328137   -0.6283441   -1.3074467 
C     2.0964863   -3.0726509   -1.9825842 
O     3.1892026   -3.4388781   -1.2024862 
O     1.8267149   -3.7797814   -3.1467219 
H     2.5129157   -4.5171945   -3.2476927 
N     0.0592691   -2.3987073   -0.7508815 
H     0.8100455   -1.4897306   -2.5285376 
H    -0.6876348   -1.6651362   -0.7435833 
H    -0.3757992   -3.2333528   -1.2149977 
