24
Energy =
C    -0.1041824    2.5130422   -1.4299119 
C    -0.7299911    2.5368171   -0.2312318 
C    -0.4360814    1.6053365    0.7042456 
C     0.8244853    1.5606699   -1.6953194 
C     1.1310977    0.6194267   -0.7571689 
C     0.4932755    0.6499254    0.4471444 
O    -1.6824492    3.5147116    0.0368511 
H    -1.2467904    4.3441528    0.4249515 
H     0.7197265   -0.0875474    1.2129860 
H     1.3148314    1.5539068   -2.6650728 
H    -0.3577243    3.2582642   -2.1754789 
H    -0.9531905    1.6282338    1.6580959 
C     2.1621565   -0.4526584   -1.0572467 
C     1.5508086   -1.7774254   -1.5871917 
H     2.7590950   -0.6577089   -0.1390513 
H     2.8947435   -0.0711250   -1.8024170 
C     0.7271298   -2.5234676   -0.5276590 
O     1.1859023   -2.5601641    0.7841921 
O    -0.4145111   -3.2579983   -0.8445491 
H    -0.5881757   -3.2470448   -1.8380035 
N     0.8157697   -1.5436523   -2.8478057 
H     2.3960192   -2.4706098   -1.8027721 
H     0.0004472   -0.9046510   -2.6839013 
H     1.4429152   -1.0754798   -3.5452464 
