24
Energy =
C     0.5521807    2.0380876    0.7858360 
C    -0.2260642    2.6664443   -0.1246024 
C    -0.2859310    2.1936326   -1.3979547 
C     1.2724737    0.9424310    0.4358333 
C     1.2203445    0.4683015   -0.8390994 
C     0.4318637    1.0978078   -1.7535915 
O    -0.9543952    3.7916394    0.2743596 
H    -1.5110864    4.2104670   -0.4624650 
H     0.3715219    0.7279255   -2.7743626 
H     1.8851687    0.4449750    1.1843022 
H     0.5891758    2.4222512    1.7997661 
H    -0.9095603    2.6907003   -2.1326300 
C     2.0057948   -0.7640594   -1.2302400 
C     1.1440050   -2.0430399   -1.1759435 
H     2.8879021   -0.8971548   -0.5627118 
H     2.4201083   -0.6244394   -2.2543268 
C     1.8378286   -3.2092003   -1.8659541 
O     3.2124037   -3.2094693   -2.0824982 
O     1.0877074   -4.3014158   -2.2801384 
H     1.7101461   -4.9825522   -2.6967547 
N     0.8337908   -2.3570534    0.2313745 
H     0.2011662   -1.8844429   -1.7504574 
H     0.1031422   -1.6911414    0.5752599 
H     0.3917821   -3.3085116    0.2813150 
