24
Energy =
C     0.6368629    2.5464891   -0.4409613 
C    -0.4835451    2.3980941    0.3148470 
C    -0.8460981    1.1662360    0.7380135 
C     1.3900402    1.4647741   -0.7636378 
C     1.0324220    0.2248966   -0.3286311 
C    -0.0967948    0.0801215    0.4174135 
O    -1.2800110    3.4906938    0.6709200 
H    -0.9555067    4.3757642    0.2957875 
H    -0.4082571   -0.9049629    0.7538551 
H     2.2744419    1.5977638   -1.3836094 
H     0.9306087    3.5291360   -0.7943041 
H    -1.7484256    1.0651842    1.3317811 
C     1.8576700   -0.9865975   -0.7085511 
C     1.2799105   -1.7176128   -1.9439736 
H     1.9011811   -1.6882991    0.1532613 
H     2.9094625   -0.6864878   -0.9227414 
C     1.2245569   -0.7986377   -3.1561620 
O     2.3952018   -0.3344526   -3.7466036 
O    -0.0021899   -0.3802637   -3.6525468 
H     0.1577775    0.2241876   -4.4482205 
N     2.0278657   -2.9734348   -2.2042566 
H     0.2163817   -1.9848266   -1.7469875 
H     2.5150100   -2.9359017   -3.1338337 
H     2.7831296   -3.1476609   -1.5006286 
