24
Energy =
C    -0.7533708    1.8076588   -1.8158258 
C    -0.9940194    2.3351152   -0.5857633 
C    -0.2384167    1.9474098    0.4667407 
C     0.2392608    0.8976287   -1.9869830 
C     1.0046185    0.5121351   -0.9289881 
C     0.7560861    1.0392028    0.3015221 
O    -2.0106095    3.2723716   -0.3749914 
H    -2.5314177    3.5216178   -1.2082525 
H     1.3472044    0.7328694    1.1617458 
H     0.4170936    0.4814609   -2.9755741 
H    -1.3569705    2.1129579   -2.6627325 
H    -0.4397945    2.3709812    1.4454212 
C     2.0985211   -0.5164028   -1.1149068 
C     1.5563987   -1.9593040   -1.0443259 
H     2.8907695   -0.3911318   -0.3416267 
H     2.6017629   -0.3436537   -2.0931053 
C     2.6040065   -2.9721786   -1.4994976 
O     3.9236807   -2.5964055   -1.7163045 
O     2.2384569   -4.2944320   -1.7155354 
H     1.7611828   -4.3676838   -2.6014229 
N     1.1053059   -2.2342072    0.3325562 
H     0.7023985   -2.0659879   -1.7523058 
H     0.1649320   -1.7978759    0.4774352 
H     0.9627391   -3.2678375    0.4556250 
