24
Energy =
C    -0.2234955    2.0002975    0.2903598 
C     0.1397002    2.8119040   -0.7288141 
C     1.0389393    2.3864935   -1.6456106 
C     0.3078095    0.7554329    0.3933856 
C     1.2105035    0.3170264   -0.5291550 
C     1.5729259    1.1420043   -1.5511070 
O    -0.4066802    4.0872097   -0.8305999 
H    -1.2576187    4.0677286   -1.3820060 
H     2.2903411    0.8129089   -2.2982648 
H    -0.0018550    0.1083743    1.2126244 
H    -0.9430266    2.3567708    1.0196210 
H     1.3278492    3.0508604   -2.4532404 
C     1.7913008   -1.0793298   -0.4292180 
C     0.8569555   -2.1749846   -1.0015061 
H     2.0094595   -1.3102117    0.6391346 
H     2.7740213   -1.1273773   -0.9480742 
C    -0.4512475   -2.2694058   -0.2303542 
O    -0.4552662   -2.8037289    1.0501301 
O    -1.6298702   -1.7391212   -0.7370487 
H    -2.0610416   -2.4401675   -1.3209661 
N     0.6440794   -1.9926107   -2.4484787 
H     1.3539350   -3.1591996   -0.8460756 
H     0.1321688   -1.0940090   -2.6203952 
H     1.5684916   -1.9244816   -2.9343943 
