24
Energy =
C     1.4059825    2.5348136   -0.8553896 
C     0.4053446    2.8662844   -0.0074832 
C    -0.1989099    1.9102767    0.7335296 
C     1.8030734    1.2416832   -0.9696272 
C     1.1996440    0.2706820   -0.2277774 
C     0.1929774    0.6150200    0.6247047 
O     0.0013564    4.1916676    0.1086802 
H    -0.7335844    4.3997223   -0.5587827 
H    -0.3056876   -0.1469562    1.2184752 
H     2.5988808    0.9876821   -1.6649247 
H     1.8831258    3.3128910   -1.4416083 
H    -0.9981015    2.1908501    1.4118150 
C     1.6312491   -1.1774050   -0.3668060 
C     0.8830842   -1.9155873   -1.4985332 
H     1.4773531   -1.7185311    0.5936172 
H     2.7238360   -1.2213528   -0.5672437 
C    -0.6119721   -2.0463619   -1.2145331 
O    -1.5313724   -2.1321805   -2.2544748 
O    -1.0681720   -2.2098358    0.0903632 
H    -2.0675983   -2.3743655    0.0608266 
N     1.1693589   -1.2458801   -2.7818385 
H     1.2581173   -2.9637385   -1.5363056 
H     2.1611527   -1.4381254   -3.0546247 
H     0.5755482   -1.6678482   -3.5370637 
