24
Energy =
C     1.0178662    2.4823396   -0.0677898 
C    -0.2205168    2.4939622    0.4770486 
C    -0.8879465    1.3323760    0.6652783 
C     1.5915677    1.3075954   -0.4324767 
C     0.9263951    0.1338084   -0.2444099 
C    -0.3206922    0.1529458    0.3022041 
O    -0.8072800    3.6996212    0.8486134 
H    -1.3343751    4.0912657    0.0756872 
H    -0.8706134   -0.7729702    0.4494999 
H     2.5820561    1.3151963   -0.8818014 
H     1.5427593    3.4204071   -0.2107424 
H    -1.8785132    1.3575054    1.1073538 
C     1.5476178   -1.1749134   -0.6787601 
C     1.0883681   -1.5809912   -2.0994014 
H     1.2738197   -1.9708430    0.0483169 
H     2.6592914   -1.1018779   -0.6507344 
C     1.5075718   -0.5638701   -3.1493991 
O     2.8554018   -0.2937410   -3.3737786 
O     0.5410316    0.1397533   -3.8600683 
H     0.9980173    0.7621208   -4.5134880 
N     1.5995316   -2.9253623   -2.4207097 
H    -0.0255065   -1.6003886   -2.1414350 
H     2.6480050   -2.9279349   -2.3836356 
H     1.2541160   -3.6198165   -1.7173677 
