24
Energy =
C     0.1350709    2.1930812   -0.8350376 
C     0.1143240    2.4620309   -2.1605875 
C     0.6071381    1.5448564   -3.0311532 
C     0.6440889    1.0163512   -0.3561839 
C     1.1391140    0.0983661   -1.2423121 
C     1.1136603    0.3732409   -2.5768042 
O    -0.4140630    3.6858757   -2.6032678 
H    -0.4026411    3.7916816   -3.6089084 
H     1.4926061   -0.3479642   -3.2925636 
H     0.6048952    0.6471930    2.7902506 
H    -0.2673422    2.9257682   -0.1466460 
H     0.5943693    1.7449614   -4.0946136 
C     1.6802824   -1.2273771   -0.7560075 
C     0.6415752   -2.0211178    0.0557982 
H     2.5799040   -1.0302937   -0.1351334 
H     2.0062603   -1.8593428   -1.6087097 
C     0.3317874   -1.2849729    1.3440387 
O     0.7790822   -1.7693429    2.5695062 
O    -0.1859077    0.0234664    1.3410460 
H     0.8111826    1.0057649    1.3853951 
N    -0.5555652   -2.2887704   -0.7636253 
H     1.1007302   -2.9927144    0.3399583 
H    -1.2275808   -2.8575979   -0.1998405 
H    -1.0374989   -1.3700554   -0.9372163 
