24
Energy =
C    -0.5903339    1.1768125    0.9306965 
C    -0.4551338    2.3893053    0.3462634 
C     0.4649953    2.5723630   -0.6280667 
C     0.2067313    0.1447353    0.5530780 
C     1.1437943    0.3231351   -0.4209770 
C     1.2626255    1.5443782   -1.0144370 
O    -1.2695104    3.4461310    0.7397015 
H    -0.8506515    3.9564074    1.5092368 
H     1.9889901    1.7020646   -1.8081881 
H     0.0775002   -0.8286190    1.0220480 
H    -1.3492024    1.0394817    1.6936424 
H     0.5511993    3.5450308   -1.1013516 
C     2.0247878   -0.8303838   -0.8615469 
C     1.3482445   -1.7502755   -1.8986413 
H     2.3289584   -1.4275146    0.0265913 
H     2.9689985   -0.4400051   -1.3028799 
C     0.1201322   -2.4603195   -1.3204041 
O    -1.1532871   -1.9526817   -1.5488461 
O     0.2549712   -3.5619555   -0.4751382 
H     1.2153614   -3.8605138   -0.3891183 
N     1.0600947   -0.9872267   -3.1258267 
H     2.0820509   -2.5456732   -2.1596382 
H     0.7581766   -1.6565957   -3.8730320 
H     0.2360303   -0.3578411   -2.9644716 
