24
Energy =
C     0.8986071    2.5692578   -0.7936100 
C     0.2053391    2.6793258    0.3707730 
C     0.0301317    1.5880970    1.1499132 
C     1.4097683    1.3705495   -1.1722076 
C     1.2308662    0.2696777   -0.3907102 
C     0.5389353    0.3865397    0.7763551 
O    -0.3362668    3.8987396    0.7897360 
H    -0.1571045    4.6701807    0.1559796 
H     0.3888066   -0.4766712    1.4196456 
H     1.9650991    1.2985877   -2.1041447 
H     1.0466946    3.4394167   -1.4239780 
H    -0.5221752    1.6910903    2.0777192 
C     1.7992191   -1.0672521   -0.8191710 
C     1.0192632   -1.6909455   -2.0081551 
H     1.8181328   -1.7896803    0.0288657 
H     2.8651628   -0.9151049   -1.1061988 
C     1.7617001   -2.8847449   -2.6160502 
O     2.8840679   -3.4135037   -1.9850648 
O     1.3480408   -3.4492928   -3.8229926 
H     0.4786714   -3.0456683   -4.1392331 
N    -0.3461801   -2.0880924   -1.6032100 
H     0.9670666   -0.9329900   -2.8238580 
H    -0.5964671   -1.7552044   -0.6436197 
H    -1.0447475   -1.6532318   -2.2510827 
