24
Energy =
C     2.0462670    2.1766372   -0.1681568 
C     1.1507974    2.4429348    0.8199482 
C     0.3396461    1.4590196    1.2696035 
C     2.1266905    0.9296611   -0.6977669 
C     1.3141144   -0.0635052   -0.2423938 
C     0.4168227    0.2097717    0.7441394 
O     1.0432634    3.7156450    1.3897717 
H     1.6760163    4.4005310    0.9908277 
H    -0.2477225   -0.5691060    1.1118742 
H     2.8405403    0.7324210   -1.4940458 
H     2.6980272    2.9602863   -0.5388468 
H    -0.3740211    1.6881214    2.0535132 
C     1.3935677   -1.4535171   -0.8409389 
C     0.3996060   -1.6744092   -2.0026939 
H     1.2087822   -2.2128270   -0.0474666 
H     2.4246595   -1.6462447   -1.2127307 
C    -1.0533944   -1.5148455   -1.5742786 
O    -1.9202766   -0.6802618   -2.2702668 
O    -1.5421161   -2.2482948   -0.5009734 
H    -2.5305499   -2.0521478   -0.4013776 
N     0.7766198   -0.8144142   -3.1414104 
H     0.4781643   -2.7414037   -2.3136568 
H     0.1743040   -1.0596179   -3.9641733 
H     0.5271679    0.1791074   -2.9161116 
