24
Energy =
C    -1.0087044    1.8138885   -1.3054571 
C    -1.5332965    1.7125131   -0.0550612 
C    -0.8373906    1.0721357    0.9114187 
C     0.2098061    1.2807505   -1.5799901 
C     0.9144975    0.6427138   -0.6043323 
C     0.3788134    0.5337771    0.6422086 
O    -2.7831960    2.2543843    0.2626230 
H    -3.2554139    2.6958317   -0.5190177 
H     0.9160682    0.0135107    1.4312145 
H     0.6094155    1.3500840   -2.5920810 
H    -1.5672041    2.3151154   -2.0888871 
H    -1.2703831    0.9916050    1.9024607 
C     2.2611974    0.0236964   -0.9136641 
C     2.1180623   -1.3754540   -1.5462642 
H     2.8610050   -0.0700186    0.0203421 
H     2.8488350    0.6968245   -1.5744195 
C     1.4186640   -1.3414655   -2.9065030 
O     0.2455806   -2.0610796   -3.0831043 
O     1.8925337   -0.5652870   -3.9665727 
H     2.7934174   -0.1583459   -3.7718033 
N     3.4483029   -2.0062005   -1.6032242 
H     1.4632077   -1.9899441   -0.8824784 
H     3.3382477   -3.0023800   -1.9122208 
H     4.0455725   -1.5384479   -2.3251444 
