24
Energy =
C     0.5482131    2.5686095   -0.6342294 
C    -0.5931826    2.4683310    0.0851887 
C    -0.9841017    1.2676496    0.5705187 
C     1.3131879    1.4695685   -0.8564040 
C     0.9351295    0.2597612   -0.3569860 
C    -0.2259390    0.1626835    0.3487520 
O    -1.3717680    3.5973854    0.3185801 
H    -1.0969179    4.0517750    1.1822120 
H    -0.5559496   -0.8002018    0.7296501 
H     2.2205232    1.5630067   -1.4496633 
H     0.8379523    3.5329421   -1.0376323 
H    -1.9133772    1.2006848    1.1269033 
C     1.7731626   -0.9729294   -0.6233826 
C     1.2558748   -1.7744875   -1.8417418 
H     1.7697976   -1.6229945    0.2789980 
H     2.8356547   -0.6870076   -0.8009774 
C     1.2769931   -0.9317399   -3.1092186 
O     2.4825978   -0.4954535   -3.6486337 
O     0.0844700   -0.5576746   -3.7124929 
H     0.2936167    0.0002954   -4.5303556 
N     2.0041578   -3.0489986   -1.9834425 
H     0.1804140   -2.0216654   -1.6875238 
H     2.5440702   -3.0705509   -2.8839006 
H     2.7155305   -3.1869796   -1.2280235 
