24
 energy: -4.302153456548 gnorm: 0.000783331415 xtb: 6.4.0 (d4b70c2)
C        -0.32112165987556    1.44701238536747    0.84633960336909
C        -0.18590367675316    2.54994071035368    0.04581187629499
C         0.80889353086614    2.55382947794542   -0.96483499881819
C         0.63435608053698    0.32369137407445    0.75765187096553
C         1.48846944624360    0.30527932187715   -0.45178208519188
C         1.57757138268093    1.41727924426915   -1.23156266438933
O        -1.02863506469169    3.62950306644730    0.22574868271277
H        -0.82861596715022    4.33045111789120   -0.43056003475459
H         2.19769506680431    1.39197005052724   -2.11158664725726
H         0.48540820797227   -0.61348460902734    1.56555305090356
H        -1.10796795194425    1.43465554402400    1.57820371742801
H         0.90526525658403    3.42279518435751   -1.58965924366719
C         1.94792853537838   -1.03965633697150   -0.89032011571944
C         0.81593870074779   -1.82918005320564   -1.56917676170788
H         2.32532780286070   -1.59081909726816   -0.02287457233473
H         2.79000526005201   -0.93838846285226   -1.58137313388923
C        -0.52241085505412   -1.87059440392514   -0.83224308998785
O        -1.40412145651939   -2.42623829639708   -1.45265936757176
O        -0.69970910199249   -1.31121722807997    0.38927040694622
H         0.20288446225114   -0.82795560496210    0.79003034467928
N         0.54538548500483   -1.31314818598031   -2.89941980293166
H         1.14466131644843   -2.87366217263747   -1.69667108833024
H        -0.26237288499723   -1.81524243287400   -3.25629002302051
H         0.25786695270337   -0.34756581540534   -2.81674931276918
