24
Energy =
C    -0.2331743    1.6803221    0.9628086 
C    -0.5008618    2.5749715   -0.0163099 
C     0.0328618    2.4098144   -1.2483642 
C     0.5776497    0.6201675    0.7155339 
C     1.1258746    0.4524304   -0.5204163 
C     0.8447984    1.3524134   -1.5034956 
O    -1.3335059    3.6596684    0.2407713 
H    -0.7981509    4.4477268    0.5880748 
H     1.2646711    1.2303577   -2.4991171 
H     0.7778697   -0.0930312    1.5110244 
H    -0.6790657    1.8182955    1.9417476 
H    -0.1992928    3.1274372   -2.0283253 
C     2.0159896   -0.7352870   -0.8103347 
C     1.2756895   -1.8507848   -1.5881241 
H     2.4382716   -1.1572716    0.1306762 
H     2.8929435   -0.3874338   -1.4020762 
C     2.2485869   -2.9237102   -2.0456259 
O     2.3570327   -3.2426787   -3.3949373 
O     3.0701974   -3.5664573   -1.1247151 
H     3.6286927   -4.2554668   -1.6117506 
N     0.1975319   -2.4333747   -0.7697731 
H     0.8357985   -1.4266657   -2.5201644 
H     0.5849055   -2.7781880    0.1411198 
H    -0.5286835   -1.7086323   -0.5621583 
