24
Energy =
C     0.1480999    2.1289470   -0.1850749 
C     1.1280987    2.5350271    0.6658779 
C     2.2883170    1.8382697    0.7323521 
C     0.3426858    1.0309112   -0.9548668 
C     1.4948653    0.3193489   -0.8847313 
C     2.4781839    0.7369665   -0.0421406 
O     0.9720927    3.6614105    1.4796679 
H     0.0804903    4.1324024    1.3677935 
H     3.4203195    0.1984489    0.0175551 
H    -0.4411673    0.5896555   -1.7224576 
H    -0.7855628    2.6759229   -0.2548460 
H     3.0638775    2.1774802    1.4105750 
C     1.6954941   -0.8861969   -1.7975610 
C     0.4123230   -1.7485245   -1.9974116 
H     2.5000206   -1.5272791   -1.3750133 
H     2.0621031   -0.5362536   -2.7885147 
C    -0.6566615   -1.0260467   -2.8617478 
O    -1.1815418    0.1909441   -2.4334166 
O    -1.1311595   -1.5388193   -4.0633627 
H    -0.5663892   -2.3104984   -4.3795815 
N     0.8035157   -3.0638558   -2.5443455 
H    -0.0711553   -1.8972000   -1.0009664 
H     1.5094400   -3.5170320   -1.9149427 
H    -0.0262396   -3.7056528   -2.5110500 
