24
Energy =
C     1.2854511    1.9401181    0.6616151 
C     0.4173781    2.7347739   -0.0192456 
C    -0.0446721    2.3391144   -1.2262227 
C     1.6904700    0.7591235    0.1293099 
C     1.2349919    0.3636193   -1.0922705 
C     0.3578193    1.1594205   -1.7634607 
O    -0.0162642    3.9598619    0.4963420 
H     0.3542032    4.1729782    1.4162806 
H    -0.0373037    0.8439506   -2.7249657 
H     2.3724397    0.1276329    0.6945791 
H     1.6538824    2.2439781    1.6355765 
H    -0.7471908    2.9776455   -1.7507247 
C     1.6773811   -0.9619417   -1.6844560 
C     0.5949122   -2.0549276   -1.5668064 
H     2.6028071   -1.3179628   -1.1770772 
H     1.9472473   -0.8195226   -2.7530051 
C     0.1737826   -2.2693668   -0.1152308 
O    -1.1658131   -2.3555938    0.2487153 
O     1.1452711   -2.4628227    0.8590911 
H     0.6811342   -2.6132389    1.7460020 
N    -0.5257405   -1.7189408   -2.4689867 
H     1.0420738   -3.0283397   -1.8739478 
H    -0.2632117   -1.9779802   -3.4486538 
H    -1.3588896   -2.3118277   -2.2303222 
