24
Energy =
C     0.2038450    1.9306601    0.7816711 
C     0.3942308    2.8894750   -0.1538807 
C     1.0225641    2.5885772   -1.3133729 
C     0.6489912    0.6668189    0.5638690 
C     1.2942411    0.3598433   -0.5954802 
C     1.4728984    1.3278352   -1.5373914 
O    -0.0680193    4.1819963    0.0708100 
H     0.6317854    4.7339860    0.5544588 
H     1.9683558    1.0974783   -2.4791959 
H     0.4834292   -0.0954538    1.3209064 
H    -0.3145146    2.1840192    1.7000875 
H     1.1557272    3.3626574   -2.0623261 
C     1.7628017   -1.0547584   -0.8554446 
C     0.6369986   -1.9337210   -1.4529536 
H     2.1221581   -1.5037635    0.0971897 
H     2.6368232   -1.0524635   -1.5483726 
C     0.1473184   -1.3902994   -2.7880342 
O     1.0132917   -1.2773005   -3.8694077 
O    -1.1500189   -0.9071484   -2.9104318 
H    -1.1969802    0.0099573   -2.4909968 
N     1.0935510   -3.3332641   -1.5959331 
H    -0.2478239   -1.8944172   -0.7742177 
H     2.0607015   -3.4912483   -1.2259075 
H     0.4522407   -3.9773652   -1.0755769 
