24
Energy =
C     0.0022263    2.1906661    0.3965408 
C    -0.3187669    2.7374021   -0.7978763 
C     0.1087154    2.1453316   -1.9443749 
C     0.7465802    1.0572770    0.4571484 
C     1.1764327    0.4588568   -0.6881201 
C     0.8534886    1.0115961   -1.8903353 
O    -1.0861105    3.9062812   -0.8180098 
H    -1.2935198    4.2544964   -1.7476536 
H     1.1906306    0.5484575   -2.8152093 
H     0.9924947    0.6358241    1.4285686 
H    -0.3457532    2.6730671    1.3039720 
H    -0.1449172    2.5787391   -2.9054734 
C     2.0028699   -0.8096507   -0.6335197 
C     1.1831786   -2.0682131   -1.0442819 
H     2.4323990   -0.9670601    0.3816729 
H     2.8784128   -0.6780069   -1.3106693 
C     2.1306525   -3.2399755   -1.3806829 
O     3.1130865   -2.9896530   -2.3340355 
O     2.1030536   -4.5289979   -0.8378977 
H     1.2901684   -4.7475499   -0.2938548 
N     0.0940880   -2.3283847   -0.0730424 
H     0.6928669   -1.8562091   -2.0178346 
H     0.0814293   -3.2865624    0.3148423 
H     0.1256013   -1.6876558    0.7538526 
