24
Energy =
C    -0.0108124    2.4333167   -1.7185604 
C    -0.6273934    2.6129976   -0.5291604 
C    -0.3675355    1.7611906    0.4976155 
C     0.8614921    1.4098320   -1.8933921 
C     1.1233166    0.5480009   -0.8706273 
C     0.5060188    0.7362097    0.3296976 
O    -1.5183472    3.6818100   -0.3879010 
H    -1.9556056    3.7400394    0.5252369 
H     0.7030089    0.0642907    1.1618917 
H     1.3482132    1.2907693   -2.8571653 
H    -0.2239880    3.1194313   -2.5305306 
H    -0.8584807    1.8979202    1.4546235 
C     2.0975044   -0.6015043   -1.0586416 
C     1.4119741   -1.9614076   -1.3608594 
H     2.7162745   -0.7050924   -0.1382489 
H     2.8162925   -0.3680986   -1.8749463 
C     0.4642700   -2.3901502   -0.2504787 
O     0.9815637   -2.9645208    0.9066489 
O    -0.9028506   -2.1473341   -0.3263940 
H    -1.3474384   -2.5109123    0.5043930 
N     0.7464649   -1.9682192   -2.6812444 
H     2.2159348   -2.7340471   -1.3580137 
H     0.8263433   -1.0532947   -3.1788947 
H     1.1857938   -2.6898370   -3.2990947 
