24
Energy =
C     1.6721751    2.4471113   -0.3468791 
C     0.5509458    2.7546497    0.3443580 
C    -0.2815335    1.7711258    0.7547945 
C     1.9721760    1.1515935   -0.6189065 
C     1.1469034    0.1525917   -0.1961199 
C     0.0131853    0.4724399    0.4888220 
O     0.2484959    4.0835783    0.6249698 
H     0.6649358    4.3680201    1.5043348 
H    -0.6762658   -0.3050171    0.8071831 
H     2.8696295    0.9211937   -1.1874504 
H     2.3201462    3.2473110   -0.6872521 
H    -1.1905370    2.0339594    1.2857069 
C     1.4794862   -1.2944503   -0.5083667 
C     0.7346966   -1.8502346   -1.7446663 
H     1.2655677   -1.9255015    0.3821082 
H     2.5730820   -1.3932037   -0.6911290 
C    -0.7545424   -2.0478149   -1.4969653 
O    -1.6532941   -1.0033161   -1.6564691 
O    -1.2226671   -3.2699684   -1.0366971 
H    -1.0161970   -3.3586024   -0.0538335 
N     1.0239994   -1.0118795   -2.9238151 
H     1.1218654   -2.8783078   -1.9380884 
H     0.6007007   -1.4590041   -3.7723700 
H     0.5224373   -0.0949255   -2.8249144 
