24
Energy =
C     0.2847101    2.1819950    0.6298110 
C    -0.3007304    2.7754013   -0.4352546 
C    -0.1164481    2.2568706   -1.6785111 
C     1.0531284    1.0755344    0.4647509 
C     1.2434894    0.5547212   -0.7785276 
C     0.6509220    1.1505939   -1.8496593 
O    -1.0859770    3.9133673   -0.2240471 
H    -1.4907231    4.3021191   -1.0686736 
H     0.7881447    0.7452667   -2.8493540 
H     1.5105756    0.6108672    1.3343375 
H     0.1287828    2.6040083    1.6169302 
H    -0.5834405    2.7257342   -2.5373391 
C     2.0848391   -0.6874813   -0.9697111 
C     1.2189246   -1.9569590   -1.1606275 
H     2.7808341   -0.8316596   -0.1118863 
H     2.7346482   -0.5410042   -1.8629652 
C     2.0711920   -3.1304644   -1.6056319 
O     3.0061734   -3.6940518   -0.7419260 
O     1.9715252   -3.6044058   -2.9085494 
H     2.6085795   -4.3819045   -3.0253967 
N     0.4776774   -2.2758021    0.0732449 
H     0.4939360   -1.7968543   -1.9924738 
H     1.1414379   -2.3673031    0.8797274 
H    -0.1965297   -1.5067211    0.2958446 
