24
Energy =
C     0.8098923    2.6819520   -1.3168168 
C     0.7261159    2.9142750    0.0131344 
C     1.0053994    1.9247530    0.8922110 
C     1.1690849    1.4548975   -1.7735972 
C     1.4512688    0.4530405   -0.8944336 
C     1.3624247    0.6945457    0.4431339 
O     0.3586054    4.1732502    0.4772091 
H    -0.6495370    4.2412028    0.5674373 
H     1.5761869   -0.0937759    1.1605766 
H     1.2203296    1.2766417   -2.8461949 
H     0.5851063    3.4872354   -2.0078747 
H     0.9402085    2.1258314    1.9564119 
C     1.8219636   -0.9269820   -1.3949500 
C     0.5880310   -1.8606934   -1.4747303 
H     2.5798512   -1.3683783   -0.7100418 
H     2.3082214   -0.8657750   -2.3961964 
C    -0.4496024   -1.3636403   -2.4841446 
O    -0.0372554   -0.7796582   -3.6786607 
O    -1.8186527   -1.4889555   -2.2433878 
H    -2.0080140   -2.0321248   -1.4149128 
N     1.0018913   -3.2395429   -1.8063167 
H     0.0947625   -1.8499749   -0.4748470 
H     2.0413159   -3.3533813   -1.8655646 
H     0.6626351   -3.9021881   -1.0699050 
