24
Energy =
C    -0.1775307    2.2247896   -0.9234399 
C     0.3360122    2.7687259    0.2039870 
C     1.3320213    2.1206248    0.8708495 
C     0.3015960    1.0425511   -1.3790299 
C     1.2790695    0.3816282   -0.7184410 
C     1.8064507    0.9328199    0.4083352 
O    -0.1743829    3.9899855    0.6549309 
H     0.2615719    4.3357690    1.5025441 
H     2.6097940    0.4332414    0.9438218 
H    -0.0802341    0.4663527   -2.3324389 
H    -0.9706755    2.7414327   -1.4527602 
H     1.7523871    2.5541290    1.7714223 
C     1.8199504   -0.9162765   -1.3013228 
C     0.7284568   -1.8847182   -1.8438548 
H     2.4097951   -1.4512700   -0.5247761 
H     2.5291374   -0.6767063   -2.1248862 
C     0.0176284   -1.3700659   -3.1212506 
O    -0.4454544   -0.0578438   -3.2259888 
O    -0.2852734   -2.2392083   -4.1568675 
H    -0.7670968   -1.7234452   -4.8823422 
N     1.3745958   -3.1945402   -2.0540741 
H    -0.0768487   -1.9875031   -1.0792296 
H     1.4888315   -3.6747142   -1.1312675 
H     0.7493400   -3.8146015   -2.6268165 
