24
Energy =
C    -0.4820682    1.4878538    0.9008928 
C     0.0474607    2.6053140    0.3517193 
C     1.0827618    2.5089108   -0.5137000 
C     0.0277630    0.2683027    0.5923114 
C     1.0762085    0.1642765   -0.2714215 
C     1.5986017    1.2930549   -0.8268859 
O    -0.4796485    3.8533198    0.6685875 
H    -0.0228639    4.2372193    1.4885329 
H     2.4287798    1.2298612   -1.5266850 
H    -0.4122990   -0.6202208    1.0375114 
H    -1.3201041    1.5797633    1.5831143 
H     1.4907093    3.4115787   -0.9565026 
C     1.6379041   -1.1913703   -0.6367180 
C     1.1472647   -1.6727419   -2.0231630 
H     1.3824777   -1.9498366    0.1378249 
H     2.7509569   -1.1278379   -0.6384744 
C     1.8905341   -2.9270474   -2.4450085 
O     3.0315216   -2.8232300   -3.2280114 
O     1.4983866   -4.1765710   -1.9845902 
H     0.7633808   -4.5152203   -2.5877978 
N    -0.3106673   -1.8907779   -2.0213703 
H     1.3999002   -0.9065515   -2.7927077 
H    -0.5848942   -2.4836863   -1.2019615 
H    -0.8017671   -0.9709258   -1.9220850 
