24
Energy =
C     1.5407610    2.2444208    0.4173734 
C     0.7784118    2.9390296   -0.4688659 
C     0.3150759    2.3221022   -1.5793282 
C     1.8359129    0.9396632    0.1879651 
C     1.3726792    0.3186120   -0.9318615 
C     0.6067271    1.0173675   -1.8141355 
O     0.4557520    4.2839654   -0.2634023 
H     0.8379798    4.6752224    0.5908385 
H     0.2227873    0.5376775   -2.7114079 
H     2.4421308    0.3969716    0.9094533 
H     1.9146549    2.7306914    1.3120859 
H    -0.2936499    2.8884516   -2.2762239 
C     1.6864406   -1.1390416   -1.1862885 
C     0.4948004   -2.0660674   -0.8474673 
H     2.5803895   -1.4644928   -0.6063653 
H     1.9688000   -1.2646042   -2.2563837 
C     0.7472017   -3.4658416   -1.3745476 
O    -0.1338454   -4.0390222   -2.2842898 
O     1.8932715   -4.1602911   -1.0032865 
H     1.8737261   -5.0749752   -1.4357719 
N     0.2444970   -2.0839773    0.6054015 
H    -0.4243451   -1.7164564   -1.3731325 
H     1.0981625   -2.4231285    1.1118344 
H     0.0162288   -1.1230740    0.9512158 
