24
Energy =
C    -0.3633039    2.3734608   -0.9004406 
C    -0.8414409    2.1452793    0.3444112 
C    -0.3651226    1.1099125    1.0732934 
C     0.6042282    1.5728514   -1.4165618 
C     1.1009623    0.5379611   -0.6828100 
C     0.6041782    0.3067590    0.5649623 
O    -1.8305686    2.9699235    0.8703249 
H    -1.4202913    3.7676833    1.3426444 
H     0.9684831   -0.5291814    1.1581924 
H     0.9708158    1.7515077   -2.4248680 
H    -0.7708721    3.1948537   -1.4801594 
H    -0.7722025    0.9239703    2.0618448 
C     2.1722367   -0.3639225   -1.2623123 
C     1.5954304   -1.5758498   -2.0192605 
H     2.8467162   -0.7163259   -0.4504348 
H     2.8159071    0.2147532   -1.9615209 
C     0.7980622   -2.5075099   -1.0953811 
O    -0.5900117   -2.4374958   -1.0555370 
O     1.4459725   -3.3881913   -0.2276687 
H     2.4482926   -3.3651750   -0.3422064 
N     0.8342118   -1.1049092   -3.1918323 
H     2.4609634   -2.1687931   -2.3926327 
H     0.6511147   -1.9221342   -3.8219277 
H    -0.1136812   -0.7717518   -2.8883844 
