24
Energy =
C     0.8537744    2.6409944   -1.5412497 
C     0.7376273    2.9885853   -0.2320386 
C     0.9604110    2.0622800    0.7276340 
C     1.1954295    1.3721407   -1.8825559 
C     1.4257331    0.4401662   -0.9165524 
C     1.2991555    0.7916090    0.3922748 
O     0.3902106    4.2870359    0.1543390 
H     0.2218197    4.9198023   -0.6203750 
H     1.4662921    0.0594929    1.1782079 
H     1.2735320    1.1038457   -2.9348227 
H     0.6686822    3.3759866   -2.3171747 
H     0.8596572    2.3517351    1.7680470 
C     1.7802624   -0.9839657   -1.2897294 
C     0.5250890   -1.8897638   -1.3638302 
H     2.4889016   -1.3897664   -0.5337687 
H     2.3197270   -1.0131283   -2.2648455 
C    -0.4318714   -1.4623041   -2.4791548 
O     0.0722235   -1.0025227   -3.6925891 
O    -1.8163995   -1.5334208   -2.3189372 
H    -2.0742635   -1.9859344   -1.4552984 
N     0.9156852   -3.3032483   -1.5429473 
H    -0.0287186   -1.7749408   -0.4028674 
H     1.9524456   -3.4495186   -1.5212238 
H     0.5069057   -3.8878825   -0.7763946 
