24
Energy =
C     0.8468542    2.5231027   -0.6803478 
C    -0.0357371    2.5815667    0.3424809 
C    -0.3547087    1.4468714    1.0200551 
C     1.4128699    1.3415952   -1.0336291 
C     1.0949010    0.2014822   -0.3607380 
C     0.2078386    0.2618002    0.6709730 
O    -0.5988542    3.8176317    0.6759999 
H    -1.2462222    3.7837255    1.4556719 
H    -0.0566067   -0.6350976    1.2254556 
H     2.1222069    1.3167851   -1.8573732 
H     1.0955398    3.4350394   -1.2126592 
H    -1.0597524    1.4868026    1.8428380 
C     1.7231765   -1.1163359   -0.7612937 
C     1.1569092   -1.6540591   -2.0997047 
H     1.5911140   -1.8868341    0.0323903 
H     2.8237654   -0.9662356   -0.8538769 
C     1.9914579   -2.8196278   -2.5964510 
O     2.7103995   -2.7086451   -3.7786435 
O     2.0691490   -3.9968852   -1.8654806 
H     1.2811153   -4.5729435   -2.1217125 
N    -0.2599496   -2.0569797   -1.9704070 
H     1.2588662   -0.8607745   -2.8781142 
H    -0.6533303   -1.8397208   -1.0259361 
H    -0.8365385   -1.5170474   -2.6584362 
