24
Energy =
C    -0.3621114    2.0216773   -0.4373487 
C     0.1211276    2.3725530    0.7857185 
C     1.2018659    1.7262467    1.2893676 
C     0.2428381    1.0316962   -1.1347031 
C     1.3126976    0.3711196   -0.6347045 
C     1.8021600    0.7320637    0.5832353 
O    -0.4700978    3.3891720    1.5435803 
H    -1.2686917    3.8267320    1.0957503 
H     2.6744137    0.2346067    0.9990405 
H    -0.0895891    0.6265054   -2.1878125 
H    -1.2256250    2.5248168   -0.8586421 
H     1.5843055    2.0164224    2.2623197 
C     1.9875724   -0.7012042   -1.4836092 
C     0.9985535   -1.6614566   -2.2105993 
H     2.6521298   -1.3126867   -0.8324324 
H     2.6395124   -0.2050411   -2.2354312 
C     0.2156565   -0.9764653   -3.3734476 
O    -0.4122052    0.2610402   -3.1731997 
O     0.0346872   -1.5794518   -4.6243287 
H     0.4262469   -2.5041331   -4.7208231 
N     1.7480944   -2.8567973   -2.6298609 
H     0.2442160   -1.9905861   -1.4614805 
H     1.0780773   -3.6147236   -2.8994873 
H     2.3473878   -2.6288969   -3.4581169 
