24
Energy =
C     0.6787257    1.6275192    1.0799323 
C    -0.1489114    2.4986517    0.4434922 
C    -0.2511540    2.4602099   -0.9040711 
C     1.3987238    0.7253581    0.3660158 
C     1.3000467    0.6875115   -0.9918878 
C     0.4683684    1.5623291   -1.6229227 
O    -0.9030137    3.4417791    1.1484435 
H    -0.7807839    3.4013482    2.1545751 
H     0.3671861    1.5448474   -2.7053606 
H     2.0543852    0.0328337    0.8884016 
H     0.7656637    1.6497841    2.1610399 
H    -0.9197008    3.1559905   -1.3993997 
C     2.0994927   -0.3301654   -1.7804692 
C     1.4654327   -1.7434092   -1.7212458 
H     3.1307994   -0.3616937   -1.3648354 
H     2.2126216   -0.0141396   -2.8426047 
C     0.1984903   -1.8856248   -2.5745949 
O    -0.2752699   -0.8218497   -3.3343030 
O    -0.5069476   -3.0851616   -2.6044460 
H     0.0214898   -3.8089534   -2.1391813 
N     2.4740458   -2.7496290   -2.1000863 
H     1.1365951   -1.9521302   -0.6767531 
H     2.8567601   -2.5341100   -3.0536086 
H     3.2777729   -2.7274920   -1.4273736 
