24
Energy =
C     0.4821587    2.6398711   -0.8996471 
C     0.3006188    2.6396966    0.4477081 
C     0.6439422    1.5480443    1.1682488 
C     1.0096680    1.5519044   -1.5170939 
C     1.3625492    0.4547426   -0.7911251 
C     1.1685000    0.4562260    0.5561125 
O    -0.2372685    3.7444128    1.1156720 
H    -0.4876185    4.5164034    0.5071190 
H     1.4288902   -0.4148933    1.1522173 
H     1.1355480    1.5584291   -2.5991331 
H     0.1999410    3.5077547   -1.4859464 
H     0.4882505    1.5592253    2.2416189 
C     1.9240937   -0.7727503   -1.4779569 
C     0.8061562   -1.7592393   -1.8973426 
H     2.6322350   -1.2849812   -0.7887004 
H     2.5201273   -0.4801586   -2.3728861 
C    -0.1306687   -1.1428154   -2.9417882 
O     0.4056887   -0.4332836   -4.0105557 
O    -1.5130080   -1.3076554   -2.8783806 
H    -1.7924375   -1.9225100   -2.1286813 
N     1.3881639   -3.0439674   -2.3544792 
H     0.1868290   -1.9691980   -0.9963426 
H     1.1487522   -3.2324574   -3.3595426 
H     2.4343726   -3.0506894   -2.3137538 
