24
Energy =
C    -0.4955094    1.5471649    0.8449300 
C     0.0160535    2.6463903    0.2291389 
C     1.0477153    2.5092523   -0.6344794 
C     0.0266687    0.3198389    0.5946243 
C     1.0680951    0.1816204   -0.2718410 
C     1.5739903    1.2844172   -0.8887485 
O    -0.4995517    3.9250944    0.4637215 
H    -1.2675414    3.9461966    1.1258642 
H     2.4014898    1.1941289   -1.5885617 
H    -0.3967745   -0.5491202    1.0918509 
H    -1.3239812    1.6471490    1.5378202 
H     1.4454210    3.3938826   -1.1200349 
C     1.6433748   -1.1849934   -0.5694981 
C     1.1415547   -1.7481771   -1.9206683 
H     1.4084387   -1.9026683    0.2491785 
H     2.7554730   -1.1077037   -0.5892699 
C     1.9003980   -3.0107718   -2.2866028 
O     3.0252882   -2.9305188   -3.0952354 
O     1.5390121   -4.2396636   -1.7515619 
H     0.7993159   -4.6231645   -2.3212274 
N    -0.3121656   -1.9900260   -1.8849306 
H     1.3696922   -1.0201356   -2.7336440 
H    -0.5638010   -2.5448287   -1.0322138 
H    -0.8178278   -1.0747972   -1.8250884 
