24
Energy =
C    -0.3120106    1.3085475    1.0383297 
C     0.0422777    2.5282970    0.5742494 
C     0.9583620    2.6356347   -0.4146615 
C     0.2585266    0.1901041    0.5225667 
C     1.1808926    0.2872322   -0.4765462 
C     1.5300698    1.5217061   -0.9389489 
O    -0.5377301    3.6733674    1.1117022 
H    -0.0071720    4.0033448    1.9100078 
H     2.2657219    1.6282423   -1.7316476 
H    -0.0370905   -0.7819513    0.9080400 
H    -1.0598018    1.2372684    1.8204131 
H     1.2267258    3.6196016   -0.7847255 
C     1.8245408   -0.9598288   -1.0577286 
C     0.9140446   -1.7521689   -2.0357851 
H     2.1322040   -1.6300086   -0.2227720 
H     2.7662795   -0.6956680   -1.5876768 
C    -0.2794416   -2.3799641   -1.3366354 
O    -1.4936242   -1.7103570   -1.2211287 
O    -0.1320175   -3.6139129   -0.7144850 
H    -1.0224717   -3.8854421   -0.3170917 
N     0.5029336   -0.9392393   -3.2012841 
H     1.5048049   -2.6297229   -2.3902034 
H     0.8857579    0.0326666   -3.1736553 
H     0.8486091   -1.3793752   -4.0856746 
