24
Energy =
C     1.1682770    2.2640306   -2.1992330 
C    -0.0594768    2.6673334   -1.8005125 
C    -0.7006810    1.9902853   -0.8109883 
C     1.7634943    1.1921914   -1.6168273 
C     1.1309300    0.5164100   -0.6177673 
C    -0.1095896    0.9183038   -0.2244080 
O    -0.6391135    3.7766479   -2.4243911 
H    -1.5628298    4.0100673   -2.0768743 
H    -0.6398984    0.3739693    0.5522951 
H     2.7472576    0.8787475   -1.9567354 
H     1.6663882    2.8091997   -2.9937643 
H    -1.6894917    2.3007287   -0.4909291 
C     1.7866236   -0.6926680    0.0210067 
C     1.4460999   -1.9941346   -0.7406557 
H     1.4667904   -0.7848697    1.0832076 
H     2.8845022   -0.5220719    0.0198355 
C     2.1194290   -3.2690469   -0.1993550 
O     1.6445949   -4.4963715   -0.6434256 
O     3.2061040   -3.2762501    0.6791170 
H     3.5525292   -2.3666921    0.9234969 
N    -0.0233393   -2.1369417   -0.7854302 
H     1.8309971   -1.8875295   -1.7817331 
H    -0.2737757   -2.8612704   -1.5026078 
H    -0.3722458   -2.5106701    0.1301968 
