24
Energy =
C     0.0792985    2.5241138   -1.3024010 
C    -0.2332808    2.6681734    0.0057089 
C     0.1574379    1.7334474    0.9020214 
C     0.7924489    1.4478901   -1.7185575 
C     1.1994222    0.5064841   -0.8211520 
C     0.8735021    0.6548779    0.4940290 
O    -0.9663493    3.7724909    0.4281389 
H    -0.3511317    4.5457818    0.6553807 
H     1.1699812   -0.0948100    1.2247925 
H     1.0294957    1.3437139   -2.7738230 
H    -0.2529670    3.2725037   -2.0128603 
H    -0.1150341    1.8511904    1.9458093 
C     1.9778622   -0.7080616   -1.2849929 
C     1.0665490   -1.8952692   -1.6708208 
H     2.6851677   -1.0294955   -0.4861122 
H     2.6137284   -0.4347918   -2.1558764 
C     0.2916711   -2.4294128   -0.4666770 
O     0.8750917   -3.4137960    0.3190789 
O    -0.9525456   -1.9247458   -0.0910245 
H    -1.2419131   -1.1763098   -0.7043899 
N     0.1840788   -1.5121366   -2.7877413 
H     1.7224121   -2.7373435   -1.9952831 
H     0.7714695   -1.2600938   -3.6175750 
H    -0.3806933   -2.3464573   -3.0785314 
