24
Energy =
C    -0.6350531    1.5483771    0.5943509 
C    -0.0904058    2.6701887    0.0698009 
C     1.0433926    2.5927290   -0.6640984 
C    -0.0398874    0.3443331    0.3964489 
C     1.1098679    0.2600148   -0.3288447 
C     1.6436727    1.3921737   -0.8675281 
O    -0.7027765    3.9025084    0.2750902 
H    -0.3599783    4.3349363    1.1256883 
H     2.5497857    1.3454908   -1.4669118 
H    -0.4958639   -0.5529055    0.8078637 
H    -1.5552502    1.6236212    1.1634376 
H     1.4611057    3.4978653   -1.0924058 
C     1.7626413   -1.0831379   -0.5724642 
C     1.1422607   -1.8009220   -1.7867752 
H     1.6687039   -1.7271650    0.3306528 
H     2.8564580   -0.9445485   -0.7321340 
C     2.0146255   -2.9650050   -2.2281596 
O     2.3485486   -3.9698996   -1.3307743 
O     2.4830762   -3.0364878   -3.5318820 
H     1.7421850   -3.3708063   -4.1306395 
N    -0.2289012   -2.2291869   -1.4510727 
H     1.1144210   -1.0903034   -2.6466737 
H    -0.7033982   -2.5733140   -2.3192155 
H    -0.1902245   -3.0452053   -0.7913830 
