24
Energy =
C    -0.0346570    2.4117608   -1.3792163 
C    -0.8834813    2.4233893   -0.3254948 
C    -0.7704285    1.4878825    0.6451954 
C     0.9276187    1.4584952   -1.4697408 
C     1.0484387    0.5139962   -0.4955120 
C     0.1895916    0.5318511    0.5621021 
O    -1.8689514    3.4013762   -0.2366543 
H    -2.7166215    3.1005653   -0.7047730 
H     0.2647838   -0.2194190    1.3450591 
H     1.6016799    1.4593092   -2.3228658 
H    -0.1311972    3.1739941   -2.1448163 
H    -1.4524671    1.5122987    1.4887124 
C     2.1099569   -0.5583895   -0.6031101 
C     1.6637928   -1.7275648   -1.5050804 
H     2.3685849   -0.9580938    0.4046293 
H     3.0459778   -0.1056073   -1.0017306 
C     2.8353716   -2.6397641   -1.8298649 
O     3.8354736   -2.8877122   -0.8946616 
O     2.8976955   -3.2582319   -3.0718668 
H     3.7248974   -3.8409208   -3.1064397 
N     0.5737509   -2.4666204   -0.8414231 
H     1.3178651   -1.3303967   -2.4886831 
H    -0.3066519   -1.9040316   -0.9033270 
H     0.3807915   -3.3495144   -1.3747679 
