24
Energy =
C     0.1813498    1.5719220    1.1421165 
C     0.0143855    2.6673864    0.3656034 
C     0.5118008    2.6874814   -0.8920527 
C     0.8417400    0.4880538    0.6602085 
C     1.3462209    0.5013907   -0.6048676 
C     1.1735854    1.6075863   -1.3808776 
O    -0.6644008    3.7757618    0.8620414 
H    -1.6594906    3.6925318    0.6854764 
H     1.5597877    1.6331628   -2.3978605 
H     0.9649220   -0.3869151    1.2930849 
H    -0.2163561    1.5734042    2.1509980 
H     0.3750509    3.5735750   -1.5030022 
C     2.0624413   -0.7144160   -1.1505387 
C     1.0759113   -1.7734017   -1.6843579 
H     2.6925806   -1.1574076   -0.3485378 
H     2.7651648   -0.4282404   -1.9674625 
C     0.2711032   -1.2614006   -2.8756594 
O    -1.0702716   -1.6079242   -3.0007030 
O     0.8624487   -0.4767548   -3.8623915 
H     0.1778636   -0.2896367   -4.5829043 
N     1.8370646   -2.9863282   -2.0297997 
H     0.3327421   -2.0153322   -0.8888155 
H     2.2253651   -3.4119301   -1.1552643 
H     1.1833429   -3.7011282   -2.4313376 
