24
Energy =
C    -0.2513789    1.5595553    1.0263920 
C    -0.1260665    2.6244019    0.1901405 
C     0.6236512    2.5103240   -0.9295272 
C     0.3731543    0.3894417    0.7392148 
C     1.1310825    0.2746785   -0.3864526 
C     1.2502911    1.3425153   -1.2221425 
O    -0.7563875    3.8441125    0.4557958 
H    -1.2986007    3.8513729    1.3130414 
H     1.8471876    1.2703103   -2.1276686 
H     0.2589585   -0.4539715    1.4157000 
H    -0.8521598    1.6409618    1.9258426 
H     0.7139192    3.3673808   -1.5882109 
C     1.8167823   -1.0316078   -0.7204507 
C     1.0526931   -1.8346592   -1.8021273 
H     1.9390982   -1.6586949    0.1929646 
H     2.8498054   -0.8096294   -1.0719829 
C     1.8863903   -3.0047566   -2.2970491 
O     2.1455964   -4.0864274   -1.4645633 
O     2.4935360   -2.9521275   -3.5459183 
H     3.3008288   -2.3489362   -3.4992629 
N    -0.2511562   -2.2918043   -1.2882518 
H     0.8837384   -1.1980512   -2.7013629 
H    -0.1175330   -2.8598322   -0.4169861 
H    -0.8566058   -1.4716463   -1.0508474 
