24
Energy =
C     0.1764982    2.5249457   -1.4429748 
C    -0.1544550    2.7264760   -0.1470536 
C     0.1522247    1.7932103    0.7827029 
C     0.8254087    1.3924983   -1.8131400 
C     1.1481880    0.4509240   -0.8813086 
C     0.8047205    0.6591546    0.4212168 
O    -0.8178356    3.8905134    0.2281655 
H    -0.1567217    4.6288494    0.4422726 
H     1.0365592   -0.0851988    1.1799055 
H     1.0794427    1.2448473   -2.8591933 
H    -0.0891531    3.2743383   -2.1801300 
H    -0.1359532    1.9571227    1.8159776 
C     1.8648648   -0.8208777   -1.2922821 
C     0.9094827   -2.0181974   -1.5257813 
H     2.6122938   -1.0889685   -0.5118238 
H     2.4551137   -0.6408308   -2.2180978 
C     0.2324661   -2.4741390   -0.2305993 
O    -1.0133545   -1.9687880    0.1237120 
O     0.8883518   -3.3169950    0.6686434 
H     1.7869625   -3.6210295    0.3258872 
N    -0.0613304   -1.7219034   -2.5955315 
H     1.5227319   -2.8827060   -1.8650259 
H    -0.7593046   -1.0107043   -2.2654168 
H     0.4242054   -1.3286993   -3.4349262 
