24
Energy =
C     0.2533622    2.4839935   -1.0477721 
C     0.3317162    2.7136115    0.2825674 
C     0.8560527    1.7608562    1.0990314 
C     0.6929613    1.3115361   -1.5704093 
C     1.2177175    0.3531590   -0.7577679 
C     1.2973823    0.5860550    0.5818908 
O    -0.1322648    3.9343044    0.7834492 
H    -0.0390858    4.0313012    1.7886593 
H     1.7143086   -0.1635630    1.2493462 
H     0.6217187    1.1465065   -2.6428324 
H    -0.1661514    3.2515560   -1.6891838 
H     0.9235290    1.9367677    2.1672789 
C     1.6995851   -0.9571945   -1.3440501 
C     0.5240764   -1.8788978   -1.7529099 
H     2.3676086   -1.4948700   -0.6341418 
H     2.3283645   -0.7294647   -2.2367687 
C     1.0262396   -3.0248524   -2.6304543 
O     1.2435249   -2.7821878   -3.9805394 
O     1.3673458   -4.2728811   -2.1133931 
H     1.1063894   -4.3361517   -1.1414624 
N    -0.2157770   -2.3675704   -0.5647407 
H    -0.1649932   -1.3074053   -2.4217512 
H     0.1937291   -2.0298637    0.3381231 
H    -1.1969524   -1.9979160   -0.5887010 
