24
Energy =
C    -0.2691361    2.2859081   -0.9736882 
C    -0.5818021    2.3944218    0.3369492 
C    -0.0594966    1.5111349    1.2281359 
C     0.5570528    1.2991289   -1.4047451 
C     1.0745637    0.4037711   -0.5186737 
C     0.7666244    0.5201804    0.8037627 
O    -1.4398415    3.4211827    0.7380193 
H    -1.6115543    3.4667098    1.7374058 
H     1.1894251   -0.1643426    1.5371492 
H     0.8085376    1.2450467   -2.4618639 
H    -0.6847403    3.0071181   -1.6712599 
H    -0.2979656    1.6032669    2.2830403 
C     2.0001995   -0.6937060   -0.9987215 
C     1.2764806   -1.7504770   -1.9014862 
H     2.4985821   -1.2101655   -0.1440422 
H     2.8321594   -0.2128804   -1.5709583 
C     2.2595276   -2.7656597   -2.4967614 
O     3.5771373   -2.3796685   -2.6795685 
O     1.8904669   -3.9969143   -3.0345591 
H     1.2095263   -4.4387075   -2.4261202 
N     0.1710318   -2.4184295   -1.2013136 
H     0.8412678   -1.2263064   -2.7758316 
H     0.4029320   -3.4399920   -1.1083167 
H    -0.0208824   -2.0028519   -0.2531126 
