24
Energy =
C    -0.7140466    1.2649164    0.9829351 
C    -0.2985458    2.4735692    0.5186043 
C     0.7827717    2.5429326   -0.2906032 
C    -0.0469626    0.1349783    0.6364878 
C     1.0440837    0.2044115   -0.1756249 
C     1.4536565    1.4162842   -0.6405201 
O    -0.9637877    3.6568085    0.8550597 
H    -1.7607969    3.5235037    1.4680980 
H     2.3194309    1.4914877   -1.2937758 
H    -0.3943724   -0.8239556    1.0124661 
H    -1.5811704    1.1992680    1.6312042 
H     1.1028298    3.5132314   -0.6546607 
C     1.7824538   -1.0527657   -0.5796903 
C     1.4198234   -1.5155972   -2.0149605 
H     1.5872548   -1.8769531    0.1436114 
H     2.8774970   -0.8562265   -0.5163126 
C     2.3122876   -2.6602822   -2.5018852 
O     3.2325520   -3.2501870   -1.6407038 
O     2.2344689   -3.1233826   -3.8147462 
H     1.4735950   -2.6824203   -4.3126843 
N    -0.0031635   -1.8891369   -2.0958892 
H     1.6134902   -0.6756629   -2.7203310 
H    -0.2390378   -2.5834604   -1.3470765 
H    -0.6033933   -1.0436536   -1.9474481 
