24
Energy =
C     0.2071285    2.4671383   -0.8856270 
C     0.0051126    2.4647329    0.4520576 
C     0.4032672    1.4064065    1.1947301 
C     0.8236436    1.4157966   -1.4838402 
C     1.2438484    0.3542107   -0.7412263 
C     1.0203729    0.3516074    0.6033553 
O    -0.6201013    3.5473845    1.0626888 
H     0.0599353    4.2495399    1.3310269 
H     1.3215102   -0.4983037    1.2110924 
H     0.9645834    1.4153569   -2.5618745 
H    -0.1393174    3.3118502   -1.4710765 
H     0.2154722    1.4068059    2.2632330 
C     1.9206929   -0.8263044   -1.4097615 
C     0.9157068   -1.7916625   -2.0629035 
H     2.5368681   -1.3860855   -0.6703068 
H     2.6270888   -0.4591854   -2.1860506 
C    -0.0611584   -2.3568809   -1.0340143 
O    -1.3354665   -1.8231771   -0.8669673 
O     0.3503303   -3.3916924   -0.2030938 
H    -0.4120846   -3.6340557    0.4172156 
N     0.2785707   -1.1108045   -3.2139554 
H     1.4869535   -2.6801663   -2.4220028 
H     0.6016127   -1.5545019   -4.1056887 
H    -0.7648660   -1.2227523   -3.1930574 
