24
Energy =
C     0.8752168    1.7802497    1.0690948 
C    -0.0895340    2.5283132    0.4858336 
C    -0.4349973    2.3019498   -0.8021035 
C     1.5105353    0.8127245    0.3598783 
C     1.1806748    0.5902935   -0.9432412 
C     0.1957481    1.3347016   -1.5169612 
O    -0.7336069    3.5252412    1.2124156 
H    -0.2443603    4.4080464    1.1191191 
H    -0.1013875    1.1427961   -2.5442004 
H     2.2744646    0.2103705    0.8458089 
H     1.1270325    1.9573533    2.1087890 
H    -1.2271726    2.8930461   -1.2490391 
C     1.8779958   -0.4981269   -1.7351805 
C     1.0278681   -1.7824127   -1.8546880 
H     2.8510326   -0.7530586   -1.2561389 
H     2.1285957   -0.1172142   -2.7491621 
C     0.6106717   -2.3187448   -0.4867464 
O    -0.7223106   -2.5787524   -0.1827395 
O     1.5866344   -2.6213815    0.4561922 
H     1.1316140   -2.9705125    1.2897712 
N    -0.1100287   -1.5210501   -2.7589059 
H     1.6670730   -2.5889619   -2.2819544 
H     0.2382171   -1.4795934   -3.7452082 
H    -0.7827189   -2.3251924   -2.7212504 
