24
Energy =
C    -1.1608415    1.6129746   -1.2029323 
C    -1.6318293    1.3726939    0.0499902 
C    -0.8268175    0.7873208    0.9655565 
C     0.1123796    1.2722726   -1.5301622 
C     0.9249321    0.6897850   -0.6059373 
C     0.4450240    0.4409838    0.6427301 
O    -2.9362367    1.7146667    0.4219632 
H    -3.4855973    2.1274800   -0.3240901 
H     1.0729775   -0.0369551    1.3898721 
H     0.4750984    1.4499409   -2.5430137 
H    -1.8044908    2.0712595   -1.9461937 
H    -1.2168119    0.5954007    1.9590506 
C     2.3340608    0.2844864   -0.9786914 
C     2.3803785   -1.1178712   -1.6238573 
H     2.9819104    0.2997918   -0.0738306 
H     2.7779387    1.0336291   -1.6727437 
C     1.5631723   -1.1754179   -2.9151198 
O     0.3997431   -1.9332834   -2.9503762 
O     1.9140870   -0.4296595   -4.0407246 
H     2.8309011   -0.0192529   -3.9274389 
N     3.7905693   -1.4749465   -1.8557693 
H     1.9116509   -1.8566254   -0.9301483 
H     4.2737370   -1.5953155   -0.9341462 
H     3.8379920   -2.4092733   -2.3299950 
