24
Energy =
C     0.9495111    1.5854136    0.9869355 
C     1.3525659    2.6051170    0.1841502 
C     1.7064373    2.3483123   -1.0949773 
C     0.9028811    0.3167795    0.5071198 
C     1.2496814    0.0555140   -0.7850463 
C     1.6582884    1.0823713   -1.5821019 
O     1.4156143    3.9231534    0.6474256 
H     1.1128112    4.0382994    1.6087262 
H     1.9498843    0.9012452   -2.6131940 
H     0.5754581   -0.4859022    1.1644549 
H     0.6609331    1.7820927    2.0138431 
H     2.0280469    3.1718393   -1.7234185 
C     1.1961142   -1.3625230   -1.3271596 
C    -0.2378009   -1.8553014   -1.6605199 
H     1.6605736   -2.0490898   -0.5840434 
H     1.8230468   -1.4507845   -2.2426853 
C    -1.1113107   -1.9695776   -0.4048988 
O    -1.9370151   -0.9174308   -0.0260372 
O    -1.0142662   -3.0722148    0.4441367 
H    -0.3876669   -3.7786658    0.0888541 
N    -0.8526204   -1.0644435   -2.7542564 
H    -0.1424790   -2.8960257   -2.0423267 
H    -1.7573368   -0.6280254   -2.4505867 
H    -0.2499719   -0.2686179   -3.0621254 
