24
Energy =
C     0.4782564    2.5334375   -0.3672436 
C    -0.8680049    2.4398145   -0.4670596 
C    -1.4676216    1.2282114   -0.4202636 
C     1.2303375    1.4142170   -0.2090406 
C     0.6321795    0.1917172   -0.1457947 
C    -0.7224821    0.1048400   -0.2620882 
O    -1.6354282    3.5886475   -0.6307350 
H    -1.9003789    3.9740394    0.2690568 
H    -1.2134635   -0.8650678   -0.2424234 
H     2.3120354    1.5034620   -0.1388969 
H     0.9461136    3.5104586   -0.4234379 
H    -2.5460526    1.1649094   -0.5198675 
C     1.4708333   -1.0595192    0.0056163 
C     1.8838602   -1.6351578   -1.3641786 
H     0.9076569   -1.8337767    0.5730733 
H     2.3688259   -0.8220366    0.6216689 
C     3.0703913   -2.6147426   -1.1965008 
O     4.2207758   -2.1109592   -0.5979664 
O     3.0933118   -3.9570027   -1.5989036 
H     2.3154889   -4.2934442   -2.1350268 
N     0.6499367   -2.1364546   -2.0214989 
H     2.3218003   -0.8033584   -1.9688645 
H     0.4500144   -1.5610162   -2.8735011 
H     0.6822432   -3.1298912   -2.3382414 
