24
Energy =
C     0.7379813    2.5073247   -0.1725255 
C    -0.0240841    2.2501573    0.9239519 
C    -0.1466803    0.9794267    1.3693719 
C     1.3758784    1.4950018   -0.8126361 
C     1.2604206    0.2164121   -0.3591854 
C     0.4870842   -0.0371678    0.7320618 
O    -0.6914597    3.2700302    1.6103830 
H    -0.5701450    4.1900762    1.2004973 
H     0.3678036   -1.0536797    1.0979417 
H     1.9700724    1.7156878   -1.6965338 
H     0.8349353    3.5219519   -0.5435080 
H    -0.7638889    0.7882012    2.2400678 
C     1.9463331   -0.9183747   -1.0881661 
C     1.0238437   -1.5580804   -2.1443709 
H     2.2507485   -1.7026217   -0.3580125 
H     2.8924811   -0.5648443   -1.5520499 
C     0.6044583   -0.5836506   -3.2496205 
O    -0.7458682   -0.3346597   -3.4540961 
O     1.5337978    0.0583947   -4.0694126 
H     2.4788727   -0.2034215   -3.8438079 
N     1.6781487   -2.7699880   -2.6673137 
H     0.0782304   -1.8631822   -1.6355366 
H     1.0056654   -3.2802769   -3.2899862 
H     2.5037780   -2.5190814   -3.2605055 
