24
Energy =
C     1.0039344    2.2622141    0.3967170 
C     0.5831997    2.9597592   -0.6837434 
C     0.5548831    2.3703438   -1.9010506 
C     1.4081826    0.9733591    0.2616720 
C     1.3926483    0.3763952   -0.9628166 
C     0.9564081    1.0816441   -2.0440495 
O     0.1681942    4.2799597   -0.5416803 
H     0.9511167    4.9153825   -0.6494611 
H     0.9231395    0.6186512   -3.0273463 
H     1.7333443    0.4206551    1.1403559 
H     1.0059042    2.7429041    1.3690879 
H     0.2025576    2.9363946   -2.7570763 
C     1.8212546   -1.0662677   -1.1167363 
C     0.6193301   -2.0330694   -1.0981696 
H     2.5255949   -1.3561528   -0.3033038 
H     2.3898292   -1.1800924   -2.0671701 
C     1.0323712   -3.4187382   -1.5670264 
O     2.3117373   -3.9088440   -1.3228718 
O     0.1169283   -4.2165585   -2.2402591 
H     0.5517792   -5.1059834   -2.4514671 
N     0.0491796   -2.0717882    0.2609996 
H    -0.1515335   -1.6912882   -1.8288288 
H    -0.4867576   -1.1885272    0.4301440 
H    -0.6608443   -2.8429147    0.3143868 
