24
Energy =
C     1.1397264    1.7639717    0.8971696 
C     0.5488583    2.7533002    0.1890721 
C     0.2942308    2.5722897   -1.1340971 
C     1.4846928    0.5980515    0.2944636 
C     1.2393077    0.4141734   -1.0320065 
C     0.6361512    1.4070869   -1.7417638 
O     0.2142750    3.9436539    0.8430324 
H    -0.2454450    4.6291264    0.2545601 
H     0.4151499    1.2642518   -2.7970072 
H     1.9470070   -0.1892214    0.8855657 
H     1.3276870    1.9139450    1.9550242 
H    -0.1868574    3.3585014   -1.7048801 
C     1.6088825   -0.8918921   -1.7058898 
C     0.4919567   -1.9540269   -1.6197981 
H     2.5445322   -1.2901838   -1.2541171 
H     1.8455616   -0.7110200   -2.7781339 
C     0.1529467   -2.3315653   -0.1730167 
O    -1.0279534   -1.8879563    0.4094391 
O     1.0302555   -3.0961739    0.5959738 
H     1.8479643   -3.3760532    0.0765511 
N    -0.6754031   -1.4995738   -2.3988356 
H     0.8795301   -2.8855015   -2.0920537 
H    -1.3610498   -2.2898707   -2.4686005 
H    -1.1817804   -0.7548201   -1.8605580 
