24
Energy =
C    -0.0767024    2.2176697   -1.6017674 
C     0.0134610    2.9550276   -0.4702800 
C     0.6599436    2.4584496    0.6128819 
C     0.4741858    0.9803404   -1.6386991 
C     1.1070447    0.4626761   -0.5586137 
C     1.2113292    1.2159146    0.5707684 
O    -0.5485902    4.2266493   -0.4216885 
H    -1.5132504    4.1807847   -0.1125014 
H     1.7385663    0.8358849    1.4418517 
H     0.4430425    0.2464202   -2.5601998 
H    -0.5838875    2.6236561   -2.4698708 
H     0.7398338    3.0665041    1.5079741 
C     1.7599407   -0.9094550   -0.6615979 
C     0.9072014   -1.9635582   -1.4391913 
H     1.9579122   -1.2937667    0.3632332 
H     2.7491465   -0.7960305   -1.1587183 
C     0.7964625   -1.6807830   -2.9536564 
O     0.4072480   -0.4271511   -3.4297423 
O     1.0301591   -2.6796591   -3.8844471 
H     0.8753336   -2.3019719   -4.8090455 
N     1.4425762   -3.3109442   -1.1797034 
H    -0.1410112   -1.9282569   -1.0640780 
H     2.4265773   -3.3756595   -1.5345585 
H     1.4510981   -3.5121909   -0.1527018 
