24
Energy =
C     0.5545817    2.4234822   -1.7502595 
C     0.0218613    2.7821339   -0.5520051 
C     0.0683212    1.9167373    0.4859473 
C     1.1303941    1.2047100   -1.9032396 
C     1.1816566    0.3323359   -0.8576007 
C     0.6456605    0.6975175    0.3397590 
O    -0.5767994    4.0314510   -0.3604749 
H    -0.5831167    4.6191541   -1.1869615 
H     0.6641400    0.0128495    1.1843987 
H     1.5482549    0.9336840   -2.8689924 
H     0.5205508    3.1098463   -2.5891566 
H    -0.3670324    2.2115748    1.4346001 
C     1.8133862   -1.0353898   -1.0287379 
C     0.7887824   -2.1486162   -1.3610668 
H     2.3623907   -1.3084817   -0.0986245 
H     2.5852702   -1.0003352   -1.8287569 
C    -0.1544293   -2.4218051   -0.1988322 
O     0.2297716   -3.3000305    0.8075558 
O    -1.3582209   -1.7363290   -0.0752872 
H    -1.8384261   -2.0669194    0.7514234 
N     0.0684736   -1.8573742   -2.6155539 
H     1.3497370   -3.1013920   -1.4980175 
H    -0.6284846   -1.0887844   -2.4508027 
H     0.7334517   -1.5382919   -3.3570345 
