24
Energy =
C     0.4429660    2.0896175    0.6376455 
C     0.2064221    2.8679733   -0.4428141 
C     0.5102657    2.4043068   -1.6842384 
C     0.9805209    0.8521525    0.4900019 
C     1.2899316    0.3851376   -0.7507199 
C     1.0480756    1.1678309   -1.8381474 
O    -0.3500450    4.1364361   -0.2492657 
H    -0.4955036    4.6614043   -1.1046670 
H     1.2829713    0.8087591   -2.8375376 
H     1.1583600    0.2413245    1.3711844 
H     0.1948971    2.4704989    1.6226420 
H     0.3221836    3.0212529   -2.5558024 
C     1.8725248   -0.9993870   -0.9263144 
C     0.8121636   -2.0239169   -1.3961535 
H     2.3494657   -1.3535850    0.0156112 
H     2.6954347   -0.9468658   -1.6768082 
C     1.4709350   -3.3396503   -1.7696908 
O     1.8617316   -3.5685833   -3.0814270 
O     1.7722210   -4.2861265   -0.7998747 
H     0.9460687   -4.8435642   -0.6402675 
N    -0.2261635   -2.2186710   -0.3681387 
H     0.3317976   -1.6565572   -2.3327175 
H     0.2185521   -2.4095362    0.5614941 
H    -0.7921008   -1.3427269   -0.2726473 
