24
Energy =
C     1.5408202    2.5066331   -0.9261840 
C     0.8014688    2.7778935    0.1822203 
C     0.3132157    1.7597731    0.9257958 
C     1.7917648    1.2209621   -1.2806012 
C     1.3092350    0.1946163   -0.5269649 
C     0.5596528    0.4720464    0.5752478 
O     0.5280644    4.0900854    0.5799277 
H     0.9072223    4.7961225   -0.0424092 
H     0.1510868   -0.3337313    1.1786266 
H     2.3722809    1.0190001   -2.1787428 
H     1.9289378    3.3162435   -1.5351040 
H    -0.2815548    1.9924908    1.8023716 
C     1.5672158   -1.2402528   -0.9356163 
C     0.4103884   -1.8105557   -1.7882675 
H     1.7114553   -1.8633826   -0.0263110 
H     2.5179783   -1.3096566   -1.5131324 
C     0.2470932   -1.0466697   -3.0914248 
O    -0.9176185   -0.3310014   -3.3413671 
O     1.2777327   -1.0163511   -4.0240804 
H     0.9701900   -0.4748433   -4.8216282 
N     0.6360312   -3.2454753   -2.0379524 
H    -0.5562126   -1.6873966   -1.2467954 
H     1.4898412   -3.3650671   -2.6380672 
H     0.7973507   -3.7559485   -1.1391251 
