24
Energy =
C    -0.0992832    0.8009276    1.4721880 
C    -0.4095837    2.0224128    0.9812130 
C     0.1159740    2.4217929   -0.2075428 
C     0.7319735   -0.0248470    0.7875662 
C     1.2684294    0.3745383   -0.3976457 
C     0.9505614    1.6015343   -0.8946386 
O    -1.2697773    2.8445427    1.7171784 
H    -1.4717300    3.7352481    1.2763305 
H     1.3550342    1.9292132   -1.8498410 
H     0.9624440   -1.0060596    1.1937202 
H    -0.5289832    0.4909713    2.4185614 
H    -0.1340665    3.3956858   -0.6126540 
C     2.1727271   -0.5548483   -1.1767631 
C     1.3688755   -1.4951219   -2.1006305 
H     2.7829710   -1.1562470   -0.4662731 
H     2.9050366    0.0307573   -1.7774259 
C     0.5767937   -0.7163472   -3.1544793 
O    -0.8068990   -0.6414354   -3.0482608 
O     1.2079561   -0.0526261   -4.2064730 
H     2.2020606   -0.2320264   -4.1934338 
N     2.3036195   -2.4525624   -2.7183614 
H     0.6139881   -2.0478039   -1.4914391 
H     2.7303946   -3.0521500   -1.9722900 
H     1.7691682   -3.1079659   -3.3388707 
