24
Energy =
C     0.8590168    2.5265512   -0.9581374 
C    -0.4079864    2.6180868   -0.4919147 
C    -0.9937140    1.5473334    0.0912992 
C     1.5495883    1.3642109   -0.8341359 
C     0.9700931    0.2851268   -0.2379694 
C    -0.3100799    0.3818088    0.2191228 
O    -1.1134662    3.8098467   -0.6230032 
H    -0.9569378    4.4096058    0.1796255 
H    -0.7972926   -0.4744863    0.6798466 
H     2.5652223    1.3034850   -1.2185407 
H     1.3100044    3.3894350   -1.4365362 
H    -2.0153588    1.6293424    0.4473372 
C     1.7318440   -1.0162716   -0.1182208 
C     1.6730570   -1.8455528   -1.4171580 
H     1.3339844   -1.6327388    0.7196157 
H     2.7914239   -0.7959579    0.1452143 
C     2.6941720   -2.9702656   -1.3700323 
O     3.4441415   -3.2728535   -2.4968017 
O     2.8576936   -3.7334166   -0.2220464 
H     2.1367598   -4.4404938   -0.2101146 
N     0.3068365   -2.3687619   -1.6009512 
H     1.9619554   -1.2060259   -2.2853440 
H    -0.3258410   -1.5778553   -1.8678507 
H     0.2971204   -3.0135418   -2.4290265 
