24
Energy =
C    -0.1031757    1.7256931    0.9673491 
C     0.0948666    2.7469787    0.0916473 
C     0.8103802    2.5315961   -1.0355215 
C     0.4152014    0.4978082    0.7120056 
C     1.1391348    0.2811586   -0.4209312 
C     1.3310674    1.3057069   -1.2963671 
O    -0.4255789    4.0240887    0.3241943 
H    -0.9490211    4.1058168    1.1891194 
H     1.9010974    1.1516553   -2.2094558 
H     0.2431272   -0.3093705    1.4196798 
H    -0.6776809    1.8882299    1.8728891 
H     0.9590695    3.3544751   -1.7263372 
C     1.7062540   -1.0888128   -0.7197954 
C     0.8571228   -1.8589636   -1.7600829 
H     1.7957346   -1.6933868    0.2114850 
H     2.7464178   -0.9676866   -1.1006858 
C     1.5869560   -3.1016054   -2.2340191 
O     1.7986225   -4.1721827   -1.3704103 
O     2.1266262   -3.1415871   -3.5138093 
H     2.5705225   -4.0403953   -3.6529803 
N    -0.4680657   -2.1962182   -1.2087401 
H     0.7244655   -1.2361772   -2.6753492 
H    -0.3615660   -2.7355102   -0.3160270 
H    -1.0033981   -1.3219225   -0.9972199 
