24
Energy =
C     0.5283726    2.4737326   -1.3171044 
C     0.3870906    2.8171731   -0.0162983 
C     0.6911324    1.9268543    0.9556246 
C     0.9831846    1.2393109   -1.6511334 
C     1.2954491    0.3376329   -0.6781283 
C     1.1462072    0.6900490    0.6299405 
O    -0.0781500    4.0838772    0.3224686 
H     0.6919141    4.7380211    0.4082247 
H     1.3859959   -0.0127578    1.4236538 
H     1.0922282    0.9775363   -2.7008197 
H     0.2695353    3.1938555   -2.0857165 
H     0.5630273    2.2117013    1.9947093 
C     1.7969511   -1.0410030   -1.0530631 
C     0.6712634   -1.9421545   -1.6188927 
H     2.2727928   -1.5492713   -0.1838805 
H     2.6026106   -0.9251402   -1.8142374 
C     1.2719932   -3.1727341   -2.2783992 
O     1.7602779   -4.2232409   -1.5093758 
O     1.4104840   -3.2186641   -3.6584672 
H     1.8342051   -4.1020333   -3.9137242 
N    -0.3377030   -2.2742983   -0.5814305 
H     0.1542283   -1.4075045   -2.4487915 
H    -0.3853097   -3.3088083   -0.4107176 
H    -0.1134898   -1.8469478    0.3460671 
