24
Energy =
C    -0.2660995    2.2189126   -1.5120394 
C    -0.1301260    2.9295213   -0.3678755 
C     0.6197264    2.4389602    0.6498182 
C     0.3443484    1.0147282   -1.6261405 
C     1.0804413    0.5036977   -0.6132845 
C     1.2300817    1.2293607    0.5289602 
O    -0.7521750    4.1671130   -0.2389416 
H    -1.6847637    4.0613190    0.1447948 
H     1.8401855    0.8548876    1.3466012 
H     0.2809559    0.2963913   -2.5558148 
H    -0.8582132    2.6184809   -2.3279448 
H     0.7344079    3.0260806    1.5550198 
C     1.7946634   -0.8236849   -0.8174743 
C     0.9245755   -1.9195073   -1.5177642 
H     2.1321920   -1.2093079    0.1699270 
H     2.7112143   -0.6385076   -1.4215122 
C     0.6133277   -1.6313803   -3.0143476 
O     0.2150559   -0.3614432   -3.4308849 
O     0.6176693   -2.6314945   -3.9820312 
H     0.7749232   -3.5460771   -3.5905493 
N     1.5758713   -3.2292358   -1.3343635 
H    -0.0723971   -1.9511415   -1.0204226 
H     2.5677120   -3.1835423   -1.6724776 
H     1.6014622   -3.4727535   -0.3155898 
