24
Energy =
C    -0.1073511    1.8304993    0.8620097 
C    -0.0263170    2.7559091   -0.1216831 
C     0.6421072    2.4734245   -1.2633718 
C     0.4883510    0.6202413    0.7109606 
C     1.1708340    0.3316761   -0.4324387 
C     1.2403794    1.2653125   -1.4220549 
O    -0.6394663    3.9948123    0.0361230 
H    -0.0081242    4.6532093    0.4791953 
H     1.7719673    1.0501430   -2.3458676 
H     0.4087838   -0.1155368    1.5069521 
H    -0.6583208    2.0660183    1.7659712 
H     0.6892782    3.2198755   -2.0493968 
C     1.8223439   -1.0213081   -0.6172597 
C     0.9765055   -1.9657138   -1.5105992 
H     2.0137896   -1.5066972    0.3658922 
H     2.8281491   -0.8668148   -1.0718531 
C     1.7391487   -3.2441416   -1.8771786 
O     3.1292203   -3.2449623   -1.8769929 
O     1.0784175   -4.3919981   -2.3091148 
H     0.0777543   -4.2655520   -2.2631787 
N    -0.3132182   -2.2665229   -0.8558426 
H     0.7861571   -1.4673297   -2.4896816 
H    -0.1574417   -2.5914701    0.1292568 
H    -0.9031005   -1.4005754   -0.8109972 
