24
Energy =
C     1.3258941    2.7806021   -0.8520256 
C    -0.0177240    2.9162611   -0.8568766 
C    -0.8025046    1.8130398   -0.7491536 
C     1.8927723    1.5528106   -0.7440275 
C     1.1160263    0.4355140   -0.6497701 
C    -0.2416204    0.5818222   -0.6401762 
O    -0.5651545    4.1985851   -0.9698675 
H    -1.5791868    4.2163255   -0.9673462 
H    -0.9023043   -0.2664556   -0.5509442 
H     2.9774779    1.4746642   -0.7326545 
H     1.9427290    3.6692575   -0.9321930 
H    -1.8827219    1.9127198   -0.7466478 
C     1.8105849   -0.9124918   -0.4970189 
C     0.9938180   -2.1794471   -0.9000782 
H     2.1891209   -1.0118851    0.5439541 
H     2.7278206   -0.8846281   -1.1312277 
C     1.9155830   -3.3017843   -1.3453409 
O     3.0628497   -3.6085135   -0.6198198 
O     1.6311273   -4.0253940   -2.4957509 
H     2.3387817   -4.7396497   -2.6064220 
N     0.1378551   -2.6540866    0.2076356 
H     0.3733597   -1.9524995   -1.7983568 
H     0.4567486   -2.3090321    1.1430923 
H    -0.8590585   -2.3763670    0.0663734 
