24
Energy =
C     0.2269158    2.5294421   -1.5501329 
C    -0.2725481    2.7220309   -0.3008133 
C    -0.0499887    1.7950975    0.6578986 
C     0.9439118    1.4135313   -1.8335036 
C     1.1666160    0.4745186   -0.8705970 
C     0.6687321    0.6778982    0.3812506 
O    -1.0115903    3.8639110    0.0254877 
H    -1.1541239    4.5006460   -0.7508707 
H     0.8349386   -0.0539294    1.1678614 
H     1.3399175    1.2820737   -2.8365041 
H     0.0558601    3.2676781   -2.3255945 
H    -0.4571053    1.9585606    1.6498194 
C     1.9683876   -0.7773359   -1.1811645 
C     1.0942808   -2.0241494   -1.4856270 
H     2.6324915   -1.0043054   -0.3160049 
H     2.6506357   -0.5944176   -2.0405371 
C     0.1907897   -2.3965823   -0.3214972 
O    -1.1170002   -1.9282034   -0.2354821 
O     0.7047849   -3.1577449    0.7226843 
H    -0.0279201   -3.3128194    1.4034925 
N     0.3338506   -1.8766132   -2.7462918 
H     1.7875714   -2.8932763   -1.5759733 
H     0.4868032   -0.9513335   -3.2067261 
H     0.6304237   -2.6098017   -3.4322589 
