24
Energy =
C     0.8308360    2.6363097   -0.8149286 
C    -0.3837865    2.6759778   -0.2200840 
C    -0.9266908    1.5453190    0.2864757 
C     1.5141433    1.4660439   -0.8930831 
C     0.9798103    0.3252266   -0.3742889 
C    -0.2506526    0.3707248    0.2094539 
O    -1.0800009    3.8774052   -0.1373625 
H    -0.8510732    4.3673269    0.7203473 
H    -0.7005635   -0.5323077    0.6136076 
H     2.4857922    1.4480634   -1.3818534 
H     1.2464305    3.5466799   -1.2336475 
H    -1.9085960    1.5885530    0.7459159 
C     1.7267849   -0.9877299   -0.4775508 
C     1.2680311   -1.8217372   -1.6983033 
H     1.5669765   -1.5721273    0.4550692 
H     2.8245378   -0.8069874   -0.5529314 
C     1.5671639   -1.1169590   -3.0132799 
O     0.5973489   -1.0641827   -4.0093260 
O     2.8011361   -0.5123124   -3.2367075 
H     2.8144685   -0.1497567   -4.1804613 
N     1.8929430   -3.1621209   -1.6764011 
H     0.1577760   -1.9258670   -1.6602211 
H     2.5020231   -3.3195093   -0.8393282 
H     1.1522624   -3.9025689   -1.6670527 
