24
Energy =
C     1.1381756    2.6375202   -0.9059861 
C     1.2682254    2.6278168    0.4404711 
C     1.5187288    1.4665979    1.0881197 
C     1.2527760    1.4832535   -1.6104837 
C     1.5067781    0.3101629   -0.9656706 
C     1.6334583    0.3075705    0.3906280 
O     1.1491544    3.8129455    1.1594945 
H     0.1838689    3.9709268    1.4277547 
H     1.8257669   -0.6191151    0.9250658 
H     1.1309436    1.5034872   -2.6915404 
H     0.9395296    3.5756736   -1.4123473 
H     1.6251944    1.4736297    2.1677475 
C     1.6026401   -0.9841956   -1.7432978 
C     0.2378156   -1.7078716   -1.8156016 
H     2.3579434   -1.6450893   -1.2643098 
H     1.9750266   -0.7860199   -2.7748845 
C    -0.7952514   -0.8861174   -2.5640608 
O    -0.5804577   -0.5196138   -3.8896404 
O    -1.9426659   -0.4524382   -1.9122784 
H    -2.5147716    0.0670605   -2.5654497 
N     0.4109090   -3.0361274   -2.4317799 
H    -0.1831915   -1.8313561   -0.7893266 
H     0.7421054   -2.9279064   -3.4222458 
H     1.1292313   -3.5920809   -1.9114663 
