24
Energy =
C    -0.1143776    2.5027806   -1.4237151 
C    -0.6183020    2.5923825   -0.1722817 
C    -0.2499318    1.6813652    0.7671768 
C     0.7539581    1.5120248   -1.7457659 
C     1.1285044    0.5964942   -0.8091118 
C     0.6195779    0.6883052    0.4511091 
O    -1.5107819    3.6284282    0.1211250 
H    -1.8533471    3.6240704    1.0756154 
H     0.9025593   -0.0340069    1.2135243 
H     1.1419398    1.4540351   -2.7594668 
H    -0.4165907    3.2326367   -2.1665502 
H    -0.6515171    1.7442945    1.7724127 
C     2.0889956   -0.5204224   -1.1700646 
C     1.3798579   -1.8131082   -1.6321307 
H     2.7418225   -0.7474447   -0.2970197 
H     2.7712532   -0.1811601   -1.9809253 
C     0.4993058   -2.4240423   -0.5473183 
O     1.0122468   -2.6352982    0.7277701 
O    -0.7966313   -2.8380432   -0.8315522 
H    -1.2060534   -3.2313189    0.0062277 
N     0.6617562   -1.5592868   -2.8960802 
H     2.1695391   -2.5757531   -1.8196817 
H     0.2672809   -2.4673832   -3.2431906 
H    -0.1829678   -0.9725452   -2.6944344 
