24
Energy =
C    -1.4617927    0.1162642    0.1787733 
C    -1.5048752    1.4491696   -0.0516292 
C    -0.3767519    2.1000873   -0.4431090 
C    -0.3028908   -0.5708641    0.0235149 
C     0.8320675    0.0774264   -0.3593224 
C     0.7854278    1.4184677   -0.5974227 
O    -2.7181312    2.1242125    0.1209082 
H    -2.6760254    3.1159847   -0.0884438 
H     1.6758989    1.9535445   -0.9195779 
H    -0.2921741   -1.6425268    0.2058702 
H    -2.3668311   -0.3977522    0.4857590 
H    -0.4020885    3.1670227   -0.6369334 
C     2.1209651   -0.6948196   -0.5613166 
C     2.1856494   -1.3580921   -1.9582501 
H     2.1966483   -1.4817886    0.2221172 
H     3.0005329   -0.0263086   -0.4227290 
C     2.1264690   -0.2973038   -3.0592858 
O     3.2635438    0.4551675   -3.3474748 
O     0.9400355   -0.0110153   -3.7421235 
H     0.1602588   -0.5771152   -3.4309732 
N     3.3726180   -2.2364119   -2.0845584 
H     1.2958315   -2.0164660   -2.0596118 
H     4.0065244   -1.9274375   -2.8596198 
H     3.9560692   -2.2327384   -1.2158342 
