24
Energy =
C    -0.4971941    1.9952464   -1.8969729 
C    -0.7612666    2.5573102   -0.6872815 
C    -0.1088165    2.1152737    0.4117321 
C     0.4162984    0.9970728   -2.0004258 
C     1.0760174    0.5537376   -0.8950714 
C     0.8056378    1.1170465    0.3144991 
O    -1.6970485    3.5869633   -0.5451702 
H    -2.1430732    3.8621954   -1.4135925 
H     1.3147975    0.7734972    1.2112618 
H     0.6151061    0.5553035   -2.9740184 
H    -1.0165934    2.3417028   -2.7839245 
H    -0.3304832    2.5713972    1.3704700 
C     2.0821525   -0.5696412   -1.0107072 
C     1.4056633   -1.9557409   -1.1458070 
H     2.7752635   -0.5778489   -0.1382908 
H     2.7248898   -0.3809590   -1.9004954 
C     2.4338704   -3.0262672   -1.4707632 
O     2.3180481   -3.7814884   -2.6328385 
O     3.5248819   -3.2293922   -0.6313172 
H     4.0832649   -3.9879078   -1.0011022 
N     0.6611735   -2.2970673    0.0789365 
H     0.6985869   -1.9416040   -2.0069815 
H     1.2990923   -2.2538081    0.9095838 
H    -0.1173958   -1.6138965    0.2286027 
