24
Energy =
C    -0.5651214    2.3648331   -0.7478803 
C    -0.6911656    2.1731613    0.5851836 
C     0.0839830    1.2599295    1.2138233 
C     0.3414859    1.6475380   -1.4570142 
C     1.1290477    0.7277901   -0.8311789 
C     0.9964272    0.5412945    0.5117123 
O    -1.6251929    2.9090760    1.3085261 
H    -1.2238949    3.7840223    1.6280079 
H     1.6125593   -0.1897888    1.0316006 
H     0.4292068    1.8127931   -2.5275008 
H    -1.1989828    3.0925588   -1.2413286 
H    -0.0346996    1.1062068    2.2813572 
C     2.1405369   -0.0808756   -1.6180536 
C     1.6396533   -1.4916534   -2.0237863 
H     3.0707491   -0.1856872   -1.0128863 
H     2.4483945    0.4760786   -2.5315795 
C     1.3077268   -2.3888698   -0.8267681 
O     2.3189602   -3.1682996   -0.2776305 
O     0.0539054   -2.4058345   -0.2149629 
H    -0.5856198   -1.7784737   -0.6737598 
N     0.5452055   -1.4054362   -3.0093201 
H     2.4952027   -2.0141226   -2.5134768 
H    -0.2027945   -0.7497779   -2.6870203 
H     0.9191698   -1.0081586   -3.9035369 
