24
Energy =
C    -1.2786449    0.7800101    0.3305845 
C    -1.2209294    1.9787587   -0.2946847 
C    -0.1168486    2.3242996   -0.9960244 
C    -0.2269944   -0.0756812    0.2636625 
C     0.8932984    0.2707315   -0.4291175 
C     0.9391779    1.4749669   -1.0661327 
O    -2.3029409    2.8500196   -0.2287286 
H    -2.2271093    3.4580451    0.5794768 
H     1.8166508    1.7606879   -1.6434878 
H    -0.2897652   -1.0390445    0.7637608 
H    -2.1765903    0.5101748    0.8765135 
H    -0.0884784    3.2814831   -1.5067604 
C     2.0536863   -0.6950775   -0.5321736 
C     1.8519367   -1.7141671   -1.6777365 
H     2.1685893   -1.2361257    0.4330755 
H     3.0065402   -0.1392745   -0.6910194 
C     1.7352636   -1.0289327   -3.0335674 
O     2.7545198   -0.2020077   -3.4920855 
O     0.5699576   -1.1388895   -3.7812733 
H    -0.1194267   -0.5050908   -3.4060802 
N     2.9503545   -2.6940624   -1.6715209 
H     0.8948902   -2.2613528   -1.5182005 
H     3.8651429   -2.2047028   -1.8273783 
H     2.9985945   -3.1751697   -0.7430884 
