24
Energy =
C     1.3521019    2.5144198   -0.3645103 
C     0.3999486    2.6001097    0.5930173 
C    -0.1350616    1.4741808    1.1178507 
C     1.7677577    1.3001908   -0.8066064 
C     1.2311223    0.1611867   -0.2860064 
C     0.2751418    0.2565861    0.6807360 
O    -0.0248289    3.8465151    1.0427897 
H    -0.7890395    4.1898443    0.4714332 
H    -0.1685881   -0.6392715    1.1088823 
H     2.5274316    1.2449264   -1.5824514 
H     1.7775821    3.4254382   -0.7706376 
H    -0.8933537    1.5549720    1.8894160 
C     1.6826286   -1.1959621   -0.7880076 
C     0.8212449   -1.7337739   -1.9527344 
H     1.6668524   -1.9262412    0.0529277 
H     2.7420046   -1.1401293   -1.1232800 
C    -0.6358086   -1.9418794   -1.5579592 
O    -0.9473446   -2.7237076   -0.4514220 
O    -1.6664818   -1.4062361   -2.3214914 
H    -2.5521981   -1.6646010   -1.9053554 
N     0.9911502   -0.8668462   -3.1349665 
H     1.1925411   -2.7545673   -2.2006322 
H     0.4808746   -1.3005554   -3.9423360 
H     0.4849272    0.0356096   -2.9669021 
