24
Energy =
C     1.0746765    2.5817812   -1.2848515 
C    -0.1485041    2.9080258   -0.8076553 
C    -0.8164491    2.0442604   -0.0099344 
C     1.6327384    1.3850405   -0.9700538 
C     0.9664021    0.5066660   -0.1687929 
C    -0.2651646    0.8458319    0.3089049 
O    -0.7172176    4.1352326   -1.1310143 
H    -1.2560653    4.0638219   -1.9873340 
H    -0.8169133    0.1598139    0.9463339 
H     2.6111600    1.1300636   -1.3698185 
H     1.6006967    3.2862980   -1.9201655 
H    -1.7946810    2.3190265    0.3705382 
C     1.5829685   -0.8378738    0.1700193 
C     1.3144840   -1.9042965   -0.9114524 
H     1.2022436   -1.1987084    1.1518303 
H     2.6819597   -0.7195928    0.2913897 
C    -0.1746695   -2.2332709   -1.0383777 
O    -0.7242860   -2.6296604   -2.2536098 
O    -0.9795378   -2.2566368    0.0966304 
H    -1.9088817   -2.5604047   -0.1676670 
N     1.9580121   -1.4654360   -2.1709371 
H     1.7773724   -2.8576821   -0.5666460 
H     2.7849837   -2.0748329   -2.3733958 
H     1.3146863   -1.5676349   -2.9926718 
