24
Energy =
C     0.7763497    2.5705331   -1.2175397 
C     0.4471608    2.7898056    0.0832580 
C     0.5472938    1.7803051    0.9777410 
C     1.2083454    1.3463766   -1.6144528 
C     1.3189881    0.3317968   -0.7120880 
C     0.9766857    0.5537195    0.5862460 
O     0.0032002    4.0395363    0.5263372 
H    -0.0646636    4.7396847   -0.2043792 
H     1.0410251   -0.2470115    1.3187399 
H     1.4536219    1.1768794   -2.6618428 
H     0.6892401    3.3722952   -1.9429406 
H     0.2742395    1.9669067    2.0109100 
C     1.7752712   -1.0415883   -1.1560933 
C     0.5874784   -1.9226711   -1.6097863 
H     2.3119894   -1.5426884   -0.3203119 
H     2.5134030   -0.9541315   -1.9858769 
C    -0.1322576   -1.3321039   -2.8092788 
O     0.5709247   -1.0034990   -3.9654192 
O    -1.4901956   -1.0509696   -2.7386906 
H    -1.7985127   -0.6958307   -3.6342687 
N     1.0624180   -3.2874767   -1.8952191 
H    -0.1780346   -1.9679539   -0.7999183 
H     1.7729130   -3.2635806   -2.6662818 
H     1.5208691   -3.6943926   -1.0467741 
