24
Energy =
C     0.5828905    2.4652060    0.0273142 
C    -0.3365675    2.0251640    0.9257516 
C    -0.4618788    0.7003644    1.1600927 
C     1.3710352    1.5786831   -0.6324619 
C     1.2445492    0.2411348   -0.4025279 
C     0.3213067   -0.1921094    0.5023314 
O    -1.1649520    2.9080055    1.6221069 
H    -1.0168357    3.8875274    1.3983079 
H     0.2046623   -1.2524494    0.7103842 
H     2.1003151    1.9549592   -1.3476944 
H     0.6892873    3.5280955   -0.1664778 
H    -1.1997570    0.3688048    1.8840941 
C     2.1160530   -0.7565955   -1.1427833 
C     1.3374436   -1.4825926   -2.2816262 
H     2.4986591   -1.4956422   -0.4037794 
H     3.0196791   -0.2487863   -1.5609032 
C     1.0466870   -0.6022166   -3.4960967 
O     1.5067452    0.7035993   -3.5306926 
O     0.3207590   -1.0485798   -4.5977513 
H     0.3953085   -2.0592225   -4.6535973 
N     2.0832806   -2.6452714   -2.7457039 
H     0.3584667   -1.8315487   -1.8816885 
H     2.1683693   -3.3592701   -1.9719770 
H     1.4790230   -3.0293335   -3.5198150 
