24
Energy =
C     0.6225688    1.8078250    0.9953812 
C     0.8840235    2.8438180    0.1650049 
C     1.4059404    2.6129567   -1.0613081 
C     0.8756337    0.5345273    0.5984946 
C     1.4008166    0.2939882   -0.6351489 
C     1.6621553    1.3428486   -1.4649752 
O     0.6223922    4.1475479    0.5749416 
H    -0.3315369    4.4085756    0.3497648 
H     2.0732016    1.1729105   -2.4576285 
H     0.6567439   -0.2886268    1.2737222 
H     0.2121536    2.0088013    1.9789403 
H     1.6151643    3.4517024   -1.7168735 
C     1.6612230   -1.1278558   -1.0858854 
C     0.3698399   -1.8200101   -1.5901112 
H     2.0838385   -1.7020173   -0.2316525 
H     2.4343465   -1.1504309   -1.8887011 
C    -0.2201217   -1.1244340   -2.8223032 
O     0.6215444   -0.6044000   -3.8015477 
O    -1.6003846   -1.0173112   -3.0054743 
H    -2.1131285   -1.5254943   -2.3012483 
N     0.6259684   -3.2464650   -1.8793971 
H    -0.3894183   -1.7389644   -0.7780148 
H     1.5962948   -3.5484807   -1.6246392 
H    -0.0326611   -3.8474625   -1.3298086 
