24
Energy =
C    -0.1467098    2.3802163   -1.2354758 
C    -0.4970676    2.5114631    0.0715829 
C    -0.0323043    1.6244242    0.9801823 
C     0.6681883    1.3664621   -1.6243556 
C     1.1433921    0.4760095   -0.7102788 
C     0.7831772    0.6097805    0.5966290 
O    -1.3314948    3.5461381    0.5060755 
H    -1.6531558    4.1568422   -0.2367877 
H     1.1359748   -0.0985769    1.3425480 
H     0.9292204    1.2603950   -2.6740288 
H    -0.5216307    3.0819570   -1.9727408 
H    -0.3260400    1.7342526    2.0184536 
C     2.0463636   -0.6630351   -1.1471377 
C     1.2673932   -1.8268985   -1.7958815 
H     2.6246337   -1.0505213   -0.2781222 
H     2.8003608   -0.2801409   -1.8684727 
C     0.2334212   -2.4299000   -0.8411211 
O     0.5338884   -2.5788620    0.5101230 
O    -0.9638636   -2.9508422   -1.3212106 
H    -1.4938689   -3.3224944   -0.5437099 
N     0.6913935   -1.3592179   -3.0736922 
H     1.9858378   -2.6543115   -1.9975970 
H     1.4395367   -1.3659816   -3.8054193 
H    -0.0377976   -2.0415979   -3.4007468 
