24
Energy =
C     0.0472098    1.1908870    1.1777078 
C    -0.9767725    1.7635803    0.5031657 
C    -0.9392389    1.8411659   -0.8468025 
C     1.1121077    0.6871515    0.5027561 
C     1.1592233    0.7659690   -0.8559801 
C     0.1224256    1.3414787   -1.5285036 
O    -2.0656099    2.2790302    1.1982685 
H    -2.7751413    1.5674951    1.3363703 
H     0.1355590    1.3990228   -2.6158331 
H     1.9256463    0.2246739    1.0566197 
H     0.0062471    1.1430021    2.2608715 
H    -1.7648118    2.3059157   -1.3760500 
C     2.3324068    0.1819385   -1.6126549 
C     2.1374184   -1.3165041   -1.9095600 
H     3.2669866    0.3164043   -1.0232428 
H     2.4926282    0.7331109   -2.5675631 
C     0.9138464   -1.5728798   -2.7800093 
O     0.7490179   -0.8972364   -3.9814477 
O    -0.0571150   -2.4752438   -2.3729436 
H    -0.6484894   -2.0330913   -1.6853534 
N     3.3723268   -1.8333863   -2.5238697 
H     1.9621297   -1.8532590   -0.9480046 
H     3.2665550   -2.8650872   -2.6841156 
H     3.4849183   -1.4099692   -3.4774296 
