24
Energy =
C     0.9255225    2.5356142   -0.0934207 
C    -0.3760296    2.4904177    0.2720839 
C    -0.9909751    1.2866461    0.4195935 
C     1.6201903    1.3896519   -0.3097776 
C     1.0120676    0.1817175   -0.1518141 
C    -0.3010121    0.1377158    0.2052506 
O    -1.0574852    3.6928744    0.4864862 
H    -2.0296175    3.5745500    0.7500353 
H    -0.8082020   -0.8185012    0.3089256 
H     2.6627365    1.4496058   -0.6126712 
H     1.4025843    3.5022689   -0.2143449 
H    -2.0368261    1.2400164    0.7034427 
C     1.7767093   -1.0976515   -0.4123305 
C     1.5878993   -1.5816450   -1.8618149 
H     1.4488694   -1.8940960    0.2924173 
H     2.8593126   -0.9348453   -0.2065275 
C     2.6072092   -2.6550348   -2.2052125 
O     2.4967666   -3.9336615   -1.6718386 
O     3.6993507   -2.3438785   -3.0008054 
H     4.2658016   -3.1758365   -3.1112781 
N     0.1984031   -2.0440172   -2.0437013 
H     1.7933184   -0.7336475   -2.5581570 
H     0.0387975   -2.2344281   -3.0619236 
H     0.0705212   -2.9651430   -1.5568395 
