24
Energy =
C    -0.0647936    2.3703521   -1.7069112 
C    -0.7543467    2.5385677   -0.5564220 
C    -0.5170736    1.7116630    0.4961885 
C     0.8587129    1.3835986   -1.8166800 
C     1.1033455    0.5522733   -0.7650666 
C     0.4089159    0.7246496    0.3937759 
O    -1.6982496    3.5677676   -0.4828106 
H    -2.1922889    3.6158048    0.4017582 
H     0.5804066    0.0680075    1.2426900 
H     1.3968039    1.2636473   -2.7529443 
H    -0.2636174    3.0337060   -2.5412315 
H    -1.0706556    1.8356092    1.4204040 
C     2.1259409   -0.5605288   -0.8889905 
C     1.5086245   -1.9249197   -1.2935183 
H     2.6745670   -0.6689194    0.0732227 
H     2.9000434   -0.2778689   -1.6371007 
C     0.6037597   -2.5062382   -0.2139811 
O    -0.7387230   -2.1549832   -0.1364998 
O     1.1431448   -3.3162846    0.7782775 
H     1.6110697   -2.7395286    1.4604993 
N     0.8365499   -1.8381293   -2.6033422 
H     2.3376706   -2.6634917   -1.3836717 
H    -0.0346275   -1.2593304   -2.5243913 
H     1.4628665   -1.3776472   -3.3041577 
