24
Energy =
C     0.6810076    1.6731149    1.1450222 
C     0.8653999    2.7671227    0.3703320 
C     1.2959141    2.6285146   -0.9045704 
C     0.9367499    0.4352988    0.6498976 
C     1.3834561    0.2884715   -0.6285984 
C     1.5560856    1.3943506   -1.4059020 
O     0.6032624    4.0343088    0.8822501 
H     1.4256934    4.4146725    1.3372336 
H     1.8956375    1.2989912   -2.4348431 
H     0.7787910   -0.4351920    1.2813845 
H     0.3207876    1.7985957    2.1602591 
H     1.4239559    3.5114753   -1.5219176 
C     1.6486925   -1.0941437   -1.1858623 
C     0.3499949   -1.7726870   -1.6903387 
H     2.1109456   -1.7180023   -0.3889353 
H     2.3931655   -1.0476410   -2.0142710 
C    -0.2741328   -1.0247030   -2.8741599 
O     0.5408087   -0.4682805   -3.8561641 
O    -1.6586967   -0.9102342   -3.0149419 
H    -2.1533567   -1.4323181   -2.3080948 
N     0.6092673   -3.1814446   -2.0543108 
H    -0.3891833   -1.7373527   -0.8565935 
H     1.5864225   -3.4888490   -1.8349146 
H    -0.0346001   -3.8132928   -1.5220708 
