24
Energy =
C     1.2181288    2.0771794    0.8986474 
C     0.3341169    2.8170282    0.1909371 
C    -0.0650657    2.3928066   -1.0380703 
C     1.7078099    0.9181418    0.3901852 
C     1.3146735    0.4920015   -0.8411450 
C     0.4212527    1.2344328   -1.5511681 
O    -0.1492754    4.0049440    0.7494334 
H    -0.8034649    4.5036852    0.1562566 
H     0.0906521    0.9069020   -2.5338032 
H     2.4120434    0.3331038    0.9772104 
H     1.5271565    2.4243504    1.8786517 
H    -0.7748599    2.9781062   -1.6126348 
C     1.8431550   -0.8075100   -1.4059699 
C     0.8537296   -1.9780561   -1.2039957 
H     2.8181233   -1.0764967   -0.9394830 
H     2.0625281   -0.6715597   -2.4898240 
C     1.2263102   -3.1871086   -2.0569532 
O     0.3756346   -4.2859781   -2.1048096 
O     2.3805726   -3.1942287   -2.8347345 
H     2.4500219   -4.0879410   -3.3048834 
N     0.8087467   -2.3236202    0.2286394 
H    -0.1600748   -1.6766025   -1.5559442 
H     0.3162751   -1.5606841    0.7497725 
H     0.2167630   -3.1792586    0.3602726 
