24
Energy =
C     0.6351142    2.5144287   -1.2832493 
C     0.3905793    2.8342598    0.0082834 
C     0.5964887    1.9189961    0.9827684 
C     1.0937852    1.2780436   -1.6047856 
C     1.3064579    0.3513560   -0.6288302 
C     1.0549896    0.6803234    0.6694678 
O    -0.0807410    4.1021539    0.3340378 
H     0.6905509    4.7396814    0.4983033 
H     1.2162402   -0.0426887    1.4651462 
H     1.2867452    1.0357595   -2.6470167 
H     0.4558290    3.2552172   -2.0548913 
H     0.3878473    2.1856091    2.0135689 
C     1.8085990   -1.0300225   -0.9904281 
C     0.7103796   -1.8952111   -1.6595729 
H     2.2029356   -1.5644604   -0.0955821 
H     2.6755045   -0.9195845   -1.6812960 
C     1.3146807   -3.1412153   -2.2791593 
O     2.0733058   -4.0216425   -1.5133686 
O     1.1574512   -3.3840599   -3.6386725 
H     1.6088923   -4.2604858   -3.8670106 
N    -0.3538632   -2.2587102   -0.6986208 
H     0.2754857   -1.3311277   -2.5188215 
H    -0.2277195   -1.8079425    0.2365646 
H    -1.2813313   -1.9369821   -1.0632673 
