24
Energy =
C     0.9381285    2.5586466   -0.3130243 
C    -0.1348078    2.5023715    0.5203881 
C    -0.5494355    1.3065243    0.9959071 
C     1.5896991    1.4210234   -0.6637859 
C     1.1758276    0.2158725   -0.1829712 
C     0.0989854    0.1657961    0.6492192 
O    -0.8278938    3.6552318    0.9032046 
H    -0.4617759    4.5100341    0.4984509 
H    -0.2532519   -0.7865823    1.0387506 
H     2.4404580    1.4794074   -1.3386542 
H     1.2759193    3.5127000   -0.7029826 
H    -1.4096298    1.2754394    1.6557804 
C     1.8963344   -1.0562510   -0.5851858 
C     1.2857017   -1.7379892   -1.8299025 
H     1.8952143   -1.7720990    0.2678483 
H     2.9663708   -0.8329521   -0.7925229 
C    -0.1493683   -2.1997595   -1.6052295 
O    -0.4779766   -2.9195219   -0.4617177 
O    -1.1279034   -1.9715153   -2.5649591 
H    -2.0012939   -2.3702327   -2.2446518 
N     1.4386142   -0.8548122   -3.0019514 
H     1.8591354   -2.6754618   -2.0124270 
H     1.1158336   -1.3767690   -3.8529515 
H     0.7580586   -0.0619458   -2.9173859 
