24
Energy =
C    -1.1267276    1.9779208   -0.5300443 
C    -1.0577166    1.7124150    0.7951749 
C    -0.0037633    1.0272890    1.2940928 
C    -0.1423623    1.5511131   -1.3641942 
C     0.9212467    0.8614757   -0.8677599 
C     0.9824337    0.5977564    0.4667697 
O    -2.0678864    2.1514065    1.6453853 
H    -2.8233978    1.4758414    1.6861438 
H     1.8185689    0.0367225    0.8772509 
H    -0.2038572    1.7676693   -2.4276415 
H    -1.9749768    2.5388343   -0.9081310 
H     0.0437529    0.8240338    2.3587355 
C     2.0089995    0.3663754   -1.7942062 
C     1.7430879   -1.0799234   -2.2626482 
H     2.9980448    0.4170628   -1.2829161 
H     2.0960706    1.0438744   -2.6741290 
C     2.6441874   -1.4478669   -3.4407476 
O     3.8425086   -2.1145017   -3.2194187 
O     2.3079265   -1.0867210   -4.7454207 
H     1.4474139   -0.5639783   -4.7965694 
N     1.9036433   -1.9970198   -1.1178503 
H     0.6992332   -1.1592099   -2.6433998 
H     1.7239887   -2.9797998   -1.4363900 
H     2.9046031   -1.9865736   -0.8035081 
