24
Energy =
C     0.9660784    2.5119960   -1.3621099 
C    -0.3326034    2.7194928   -1.0443582 
C    -0.9848206    1.8380877   -0.2524996 
C     1.6162298    1.4163269   -0.8938801 
C     0.9664450    0.5224082   -0.0972206 
C    -0.3411119    0.7400344    0.2201105 
O    -0.9968274    3.8427411   -1.5266864 
H    -1.4218156    3.6469288   -2.4264567 
H    -0.8797333    0.0338425    0.8494114 
H     2.6569508    1.2555560   -1.1651779 
H     1.4782213    3.2303315   -1.9928741 
H    -2.0248014    2.0194871   -0.0016931 
C     1.6862035   -0.7098534    0.4143602 
C     1.5164614   -1.9391053   -0.5057653 
H     1.3214469   -0.9586926    1.4367687 
H     2.7724617   -0.4943608    0.5226507 
C     0.0617738   -2.3711537   -0.6429829 
O    -0.7197784   -2.5386756    0.4945558 
O    -0.4905498   -2.6511991   -1.8858406 
H    -1.4497493   -2.9451586   -1.7557878 
N     2.1802564   -1.6802725   -1.7980833 
H     2.0171323   -2.8025524   -0.0108327 
H     2.1829862   -2.5685113   -2.3554608 
H     1.5889941   -1.0196233   -2.3578352 
