24
Energy =
C    -0.5355676    1.8171125   -0.3799966 
C     0.1341635    2.8129121   -1.0278021 
C     1.3996101    2.5836801   -1.4308568 
C     0.0428489    0.5830603   -0.1487461 
C     1.3254089    0.3907345   -0.5634137 
C     1.9898663    1.3887357   -1.2067026 
O    -0.4579501    4.0771530   -1.2765750 
H    -1.4106857    4.0465843   -0.9442136 
H     2.9987272    1.2287179   -1.5629350 
H    -1.5850166   -1.4110645    1.5625789 
H    -1.5491348    1.9709301   -0.0333292 
H     1.9446838    3.3629779   -1.9474434 
C     1.9383464   -0.9716304   -0.4337969 
C     1.0273243   -2.0172329   -1.1175890 
H     2.0644033   -1.2131617    0.6435606 
H     2.9319759   -0.9976370   -0.9039101 
C    -0.2394235   -2.2071596   -0.2946465 
O    -0.4859154   -3.4273735    0.3508341 
O    -1.1670763   -1.1717260   -0.0621215 
H    -0.7426985   -0.2468167    1.2087915 
N     0.7187495   -1.6488021   -2.5179364 
H     1.5534001   -2.9872487   -1.1143633 
H    -0.0057639   -0.8822690   -2.3731424 
H     1.5304401   -1.1268355   -2.9051164 
