24
Energy =
C     0.6063505    2.0370105    0.8194398 
C    -0.2368794    2.7502821    0.0262760 
C    -0.3569880    2.4274561   -1.2811089 
C     1.3251713    1.0093494    0.3007536 
C     1.2101040    0.6869309   -1.0177046 
C     0.3599064    1.4011280   -1.8049092 
O    -0.9902452    3.8170016    0.5278082 
H    -0.8544952    3.9852540    1.5186160 
H     0.2416976    1.1470318   -2.8543196 
H     1.9877296    0.4431765    0.9513077 
H     0.7055865    2.2835990    1.8708897 
H    -1.0389337    2.9987795   -1.9007781 
C     2.0001572   -0.4703610   -1.5973342 
C     1.1828056   -1.7814319   -1.6500574 
H     2.9239339   -0.6359260   -0.9969949 
H     2.3469980   -0.2080762   -2.6206029 
C     0.7350538   -2.2343354   -0.2611314 
O     1.6454980   -2.2364435    0.7921954 
O    -0.5369934   -2.7534810   -0.0463596 
H    -0.6286971   -2.9987501    0.9300936 
N     0.0626166   -1.6115500   -2.5948348 
H     1.8508032   -2.5961573   -2.0118750 
H     0.4392644   -1.5753869   -3.5704598 
H    -0.5622872   -2.4526622   -2.5535855 
