24
Energy =
C    -0.1586875    1.8105648    0.8672265 
C    -0.3442862    2.6906542   -0.1526665 
C     0.2109283    2.4408814   -1.3602619 
C     0.5802119    0.6887134    0.6744696 
C     1.1426613    0.4385839   -0.5403154 
C     0.9506510    1.3205734   -1.5590077 
O    -1.1003576    3.8556842    0.0122071 
H    -1.4819603    3.9723980    0.9446573 
H     1.3868301    1.1361552   -2.5377496 
H     0.7143802   -0.0070645    1.4989353 
H    -0.6018788    2.0013289    1.8386364 
H     0.0537715    3.1500575   -2.1657238 
C     1.9539616   -0.8175473   -0.7671005 
C     1.1538760   -1.9075733   -1.5214332 
H     2.3269957   -1.2321310    0.1977495 
H     2.8651886   -0.5530313   -1.3502498 
C     2.0595099   -3.0592326   -1.9222732 
O     2.1687137   -3.4334764   -3.2572439 
O     2.8195133   -3.7222509   -0.9636690 
H     3.3387550   -4.4639275   -1.4155069 
N     0.0239583   -2.3868169   -0.7058731 
H     0.7608389   -1.4880030   -2.4761491 
H     0.3710255   -2.7274017    0.2227435 
H    -0.6534412   -1.6073861   -0.5352228 
