24
Energy =
C    -0.4575752    2.0170167    0.5115769 
C     0.5963681    2.8511166    0.3720510 
C     1.8078673    2.3476911    0.0191429 
C    -0.3132844    0.6832940    0.2993423 
C     0.8930754    0.1712332   -0.0693544 
C     1.9572939    1.0157665   -0.1954460 
O     0.4078511    4.2172441    0.6020065 
H     1.2413270    4.7798542    0.4723176 
H     2.9357384    0.6313002   -0.4735459 
H    -1.1709031    0.0319170    0.4336996 
H    -1.4186743    2.4322202    0.7982067 
H     2.6595456    3.0100896   -0.0896459 
C     1.0734252   -1.3230620   -0.2971084 
C     0.6602942   -1.8640985   -1.7025957 
H     0.5118374   -1.8790725    0.4871103 
H     2.1406344   -1.5890684   -0.1293436 
C    -0.8216549   -2.2110821   -1.8336821 
O    -1.2058505   -3.2651144   -2.6533663 
O    -1.8062416   -1.4926425   -1.1669314 
H    -2.7123305   -1.8678995   -1.4239099 
N     1.1757912   -1.0435705   -2.8265359 
H     1.1427527   -2.8638828   -1.7957644 
H     0.3968165   -0.7631544   -3.4707025 
H     1.6238602   -0.1541843   -2.5207236 
