24
Energy =
C     0.0392787    2.6083806   -1.4809538 
C    -0.5398139    2.8230694   -0.2789157 
C    -0.3196280    1.9654445    0.7428552 
C     0.8388208    1.5293884   -1.6670441 
C     1.0683859    0.6547695   -0.6445860 
C     0.4885643    0.8882849    0.5678902 
O    -1.3835789    3.9114093   -0.1001140 
H    -0.8673777    4.7481658    0.1578880 
H     0.6699754    0.2259082    1.4135914 
H     1.2846971    1.3599778   -2.6429375 
H    -0.1512098    3.3044741   -2.2914002 
H    -0.7957038    2.1519498    1.7025253 
C     1.9990307   -0.5308589   -0.8435015 
C     1.3479433   -1.7962101   -1.5022797 
H     2.4552349   -0.8194073    0.1364078 
H     2.8666154   -0.2038493   -1.4646101 
C     0.3664328   -2.5728800   -0.6332903 
O     0.0106189   -2.0718203    0.6034196 
O    -0.1860189   -3.7998195   -1.0062410 
H    -0.1157092   -3.9678213   -2.0091473 
N     0.7270416   -1.5133648   -2.7908028 
H     2.1818714   -2.5031969   -1.6979558 
H     0.2578648   -2.4340900   -3.0381649 
H     0.0080541   -0.7473356   -2.7144757 
