24
Energy =
C    -0.1027223    2.2070590   -1.5918587 
C     0.0086512    2.9537112   -0.4684297 
C     0.6706232    2.4639087    0.6084555 
C     0.4579124    0.9742570   -1.6331134 
C     1.1135453    0.4666188   -0.5618826 
C     1.2293997    1.2247859    0.5630443 
O    -0.5621713    4.2212271   -0.4160170 
H     0.0935418    4.9231469   -0.7412324 
H     1.7664873    0.8490395    1.4299400 
H     0.4130597    0.2338154   -2.5489013 
H    -0.6422325    2.5984585   -2.4471070 
H     0.7487688    3.0711278    1.5042187 
C     1.7685348   -0.9043209   -0.6676314 
C     0.9025113   -1.9660965   -1.4198365 
H     1.9876547   -1.2806726    0.3558894 
H     2.7471736   -0.7926606   -1.1853189 
C     0.7622390   -1.6958490   -2.9341302 
O     0.3639678   -0.4459958   -3.4129823 
O     0.9791135   -2.7021903   -3.8610989 
H     0.8025762   -2.3336058   -4.7854487 
N     1.4449787   -3.3105537   -1.1595917 
H    -0.1386931   -1.9288138   -1.0252434 
H     2.4234114   -3.3757543   -1.5292835 
H     1.4696816   -3.5044351   -0.1314012 
