24
Energy =
C     0.0983069    1.6378131    1.1678209 
C    -0.4234086    2.5279845    0.2821325 
C    -0.1688550    2.3845438   -1.0383038 
C     0.8704954    0.6116788    0.7287986 
C     1.1307913    0.4688744   -0.6001599 
C     0.6025527    1.3602028   -1.4828976 
O    -1.2238662    3.5954893    0.7005523 
H    -1.3654814    3.6385175    1.7040003 
H     0.7945180    1.2591741   -2.5483215 
H     1.2777792   -0.0938580    1.4481464 
H    -0.1016258    1.7440160    2.2285901 
H    -0.5923440    3.1010216   -1.7339829 
C     1.9740503   -0.6838906   -1.0985043 
C     1.1052851   -1.8350531   -1.6621858 
H     2.6372600   -1.0641536   -0.2892622 
H     2.6578835   -0.3072371   -1.8945581 
C     1.9582159   -2.8757394   -2.3849061 
O     1.9530382   -2.9032104   -3.7744944 
O     2.8027945   -3.7513390   -1.7014068 
H     2.7092876   -3.6520136   -0.7033380 
N     0.2788617   -2.4408219   -0.5997510 
H     0.4325458   -1.4271368   -2.4537045 
H     0.8335035   -2.5744115    0.2780592 
H    -0.5098974   -1.7929947   -0.3622529 
