24
Energy =
C     0.2897217    2.4587576   -0.7517366 
C    -0.0341385    2.4419320    0.5687676 
C     0.2929552    1.3685876    1.3237406 
C     0.9376403    1.4042508   -1.3084365 
C     1.2694626    0.3239379   -0.5487301 
C     0.9406404    0.3109280    0.7723991 
O    -0.7025073    3.5107912    1.1737582 
H    -0.9115251    4.2783256    0.5442918 
H     1.1914719   -0.5435399    1.3958441 
H     1.1899633    1.4307197   -2.3659915 
H     0.0308721    3.3150007   -1.3653431 
H     0.0280035    1.3683141    2.3756921 
C     1.9784217   -0.8565521   -1.1749073 
C     1.0203086   -1.7460010   -2.0029919 
H     2.4864855   -1.4749869   -0.4000042 
H     2.7924494   -0.4732791   -1.8324459 
C     1.8039998   -2.7509409   -2.8223863 
O     2.5040034   -3.7795209   -2.1998306 
O     1.8879355   -2.6048318   -4.2007620 
H     2.4476224   -3.3608504   -4.5745565 
N     0.0428785   -2.4201016   -1.1282128 
H     0.4782928   -1.1268510   -2.7559818 
H     0.5442114   -3.0108667   -0.4210426 
H    -0.5345464   -1.7154492   -0.6137584 
