24
Energy =
C     1.3586150    2.0648388    0.6917972 
C     0.9394861    2.9168059   -0.2721477 
C     0.8010790    2.4826695   -1.5458915 
C     1.6358748    0.7718139    0.3856729 
C     1.5025928    0.3278589   -0.8951861 
C     1.0764531    1.1909815   -1.8597846 
O     0.6558075    4.2414566    0.0445096 
H    -0.3165805    4.3456941    0.3125966 
H     0.9564522    0.8548753   -2.8864343 
H     1.9594844    0.0935071    1.1719906 
H     1.4698781    2.4276614    1.7078732 
H     0.4708686    3.1781531   -2.3103534 
C     1.7905514   -1.1179902   -1.2361144 
C     0.5319698   -1.9918645   -1.0969981 
H     2.5846053   -1.5199917   -0.5645752 
H     2.1964558   -1.1822187   -2.2704364 
C     0.7639647   -3.3612184   -1.7216102 
O     1.5960089   -4.2865873   -1.1071031 
O     0.1928475   -3.6753524   -2.9472714 
H     0.7084711   -3.2165159   -3.6833277 
N     0.1706726   -2.0650109    0.3359562 
H    -0.3010975   -1.5362955   -1.6842548 
H    -0.7430357   -1.5787358    0.4929596 
H     0.0416525   -3.0579248    0.6533422 
