24
Energy =
C    -0.0493697    1.6315407    1.0691566 
C     0.0832110    2.6551274    0.1947138 
C     0.7538864    2.4715854   -0.9654593 
C     0.4963401    0.4203793    0.7899088 
C     1.1771850    0.2281123   -0.3750410 
C     1.3024282    1.2634784   -1.2522370 
O    -0.4770453    3.8950118    0.4847959 
H     0.1754590    4.4714718    1.0046553 
H     1.8395393    1.1316974   -2.1880996 
H     0.3807628   -0.3912738    1.5033152 
H    -0.6000097    1.7908747    1.9899211 
H     0.8437675    3.2980607   -1.6628493 
C     1.7844591   -1.1202748   -0.7006780 
C     0.9768539   -1.8814216   -1.7827746 
H     1.8674516   -1.7568551    0.2102102 
H     2.8292607   -0.9568299   -1.0492730 
C     1.7896010   -3.0487360   -2.3239436 
O     1.9689158   -4.1938815   -1.5603308 
O     2.4314172   -2.9466613   -3.5504986 
H     3.2475550   -2.3614516   -3.4542608 
N    -0.3558563   -2.2959034   -1.2757449 
H     0.8201250   -1.2195625   -2.6657313 
H    -0.4541274   -3.3417313   -1.2667277 
H    -0.5234308   -1.9914855   -0.2899096 
