24
Energy =
C     0.1067753    2.5645579   -1.1508741 
C    -0.5026544    2.5740564    0.0564180 
C    -0.3014226    1.5424101    0.9187311 
C     0.9177702    1.5352478   -1.5040439 
C     1.1315615    0.5047919   -0.6398845 
C     0.5096013    0.5108945    0.5711805 
O    -1.3307059    3.6525023    0.3836373 
H    -1.7573887    3.5864255    1.3011059 
H     0.6515178   -0.3154341    1.2629135 
H     1.3911376    1.5417770   -2.4826651 
H    -0.0662207    3.3902678   -1.8328896 
H    -0.7928523    1.5386261    1.8850854 
C     2.0170126   -0.6560479   -1.0396759 
C     1.1971252   -1.7848193   -1.6991532 
H     2.5568558   -1.0396953   -0.1464910 
H     2.8013837   -0.2962728   -1.7447349 
C     2.0847445   -2.7730667   -2.4569140 
O     1.8570081   -2.9853306   -3.8098724 
O     3.1155041   -3.4769180   -1.8327567 
H     3.2050725   -3.2384619   -0.8581799 
N     0.3548568   -2.4417755   -0.6818623 
H     0.5353143   -1.3260187   -2.4725406 
H    -0.3233235   -3.0807413   -1.1630590 
H     0.9380084   -3.0437771   -0.0540214 
