24
Energy =
C    -0.0099199    1.9775406    0.6111014 
C     0.1749054    2.8679400   -0.3904797 
C     0.9018589    2.5224859   -1.4779201 
C     0.5279798    0.7344788    0.5259676 
C     1.2634261    0.3795812   -0.5642609 
C     1.4420948    1.2804209   -1.5707663 
O    -0.3779730    4.1414946   -0.3002968 
H    -1.3130281    4.1545760   -0.6926691 
H     2.0186645    1.0148491   -2.4530646 
H     0.3612875    0.0229892    1.3306783 
H    -0.5914454    2.2691154    1.4786996 
H     1.0478162    3.2486656   -2.2706961 
C     1.8450680   -1.0129272   -0.6734021 
C     0.8442437   -1.9945994   -1.3154573 
H     2.1408709   -1.3843650    0.3341624 
H     2.7850828   -0.9773447   -1.2699271 
C     1.5370492   -3.3046413   -1.6953959 
O     1.5750450   -4.3575522   -0.7896837 
O     2.1933596   -3.4484531   -2.9177797 
H     2.1418165   -2.6154607   -3.4845438 
N    -0.2917152   -2.1991412   -0.3965282 
H     0.4593854   -1.5509008   -2.2624890 
H    -0.9906148   -2.8371984   -0.8481300 
H     0.0377451   -2.7027118    0.4629077 
