24
Energy =
C    -0.4507144    1.3821006    0.9981238 
C     0.1025222    2.5564927    0.6221348 
C     1.1738666    2.5565362   -0.2140227 
C     0.0578389    0.2070345    0.5491648 
C     1.1262971    0.1983355   -0.2960738 
C     1.6847701    1.3843967   -0.6697084 
O    -0.4453665    3.7464681    1.1118288 
H     0.0128632    4.5857571    0.7748000 
H     2.5443918    1.4052780   -1.3346697 
H    -0.4055449   -0.7228669    0.8662502 
H    -1.3086552    1.3944975    1.6618411 
H     1.6240454    3.4950502   -0.5178651 
C     1.7024109   -1.1136361   -0.8012124 
C     0.8690137   -1.7837797   -1.9284144 
H     1.8041760   -1.8164880    0.0554519 
H     2.7384141   -0.9578965   -1.1773050 
C    -0.4823330   -2.2903641   -1.4366585 
O    -1.6013787   -1.4684015   -1.4426299 
O    -0.5899340   -3.5643672   -0.8963652 
H    -0.2252613   -3.5629475    0.0438736 
N     0.7853466   -0.9311432   -3.1402093 
H     1.4004798   -2.7188275   -2.2216554 
H    -0.2146214   -0.7387494   -3.3967562 
H     1.2173371    0.0091320   -2.9987572 
