24
Energy =
C     0.7948059    2.4854701    0.0922556 
C     0.0095959    2.8527093   -0.9467146 
C    -0.1672410    2.0119622   -1.9915771 
C     1.4014833    1.2709623    0.0934067 
C     1.2267457    0.4186920   -0.9549315 
C     0.4356641    0.7960034   -1.9978502 
O    -0.6106269    4.0982599   -0.9441481 
H    -1.5165917    4.0464782   -0.4914953 
H     0.2821127    0.1295838   -2.8431604 
H     2.0250502    0.9881554    0.9377952 
H     0.9342429    3.1739453    0.9186578 
H    -0.7925149    2.3214913   -2.8223813 
C     1.8879170   -0.9415052   -0.9563329 
C     0.9029220   -2.0746073   -0.5776431 
H     2.7604960   -0.9627258   -0.2640287 
H     2.3092921   -1.1321974   -1.9695010 
C     1.5231814   -3.4373289   -0.8362700 
O     0.8722669   -4.3617218   -1.6459954 
O     2.7677146   -3.7560865   -0.3024438 
H     2.9983417   -4.7064190   -0.5618979 
N     0.4762063   -1.9465608    0.8273931 
H     0.0048093   -2.0259504   -1.2360896 
H     1.3136985   -1.9425361    1.4582442 
H    -0.0426904   -1.0485550    0.9671421 
