24
Energy =
C     0.4283598    0.8062662    1.5354942 
C     0.5236274    2.1339196    1.2989218 
C     1.0114254    2.5774547    0.1183302 
C     0.8148198   -0.0845834    0.5871315 
C     1.2910441    0.3507580   -0.6131293 
C     1.3952990    1.6923947   -0.8367809 
O     0.1300266    3.0438595    2.2743969 
H    -0.8540390    3.2692780    2.1748534 
H     1.7855098    2.0677975   -1.7791268 
H     0.7261213   -1.1482995    0.7888585 
H     0.0395650    0.4658691    2.4891593 
H     1.0936559    3.6456971   -0.0537939 
C     1.7247481   -0.6406100   -1.6803029 
C     0.5567667   -1.3080160   -2.4605682 
H     2.3495192   -1.4320826   -1.2083812 
H     2.3925732   -0.1391471   -2.4154720 
C    -0.2390242   -2.2943593   -1.6141502 
O     0.0182920   -3.6568474   -1.7274763 
O    -1.1649307   -1.8634270   -0.6668993 
H    -1.6335219   -2.6678641   -0.2702655 
N    -0.3223147   -0.3175497   -3.1205124 
H     1.0296333   -1.9440276   -3.2454827 
H    -0.0433643    0.6691254   -2.9233516 
H    -0.2867086   -0.4429626   -4.1590049 
