24
Energy =
C     0.5377624    2.3751457    0.1749187 
C    -0.4700870    1.9354027    0.9748722 
C    -0.6690761    0.6069921    1.1297846 
C     1.3419591    1.4854785   -0.4599826 
C     1.1475007    0.1477306   -0.2978730 
C     0.1305785   -0.2871939    0.4953835 
O    -1.3149345    2.8241863    1.6479607 
H    -1.1168689    3.8013549    1.4605016 
H    -0.0503579   -1.3507152    0.6238913 
H     2.1353322    1.8519225   -1.1078987 
H     0.7001701    3.4385430    0.0363051 
H    -1.4809208    0.2711253    1.7650249 
C     2.0246113   -0.8457528   -1.0285312 
C     1.4090594   -1.2661729   -2.3862651 
H     2.1699078   -1.7458512   -0.3895732 
H     3.0388336   -0.4145923   -1.1896697 
C     1.2309941   -0.0759913   -3.3286410 
O    -0.0427958    0.4373135   -3.5435851 
O     2.3185485    0.5470630   -3.9406329 
H     3.1681642    0.0344911   -3.7582147 
N     2.2276675   -2.3236168   -3.0192453 
H     0.3765786   -1.6499441   -2.2013226 
H     3.0720720   -2.5790165   -2.4534367 
H     1.6599975   -3.1983883   -3.1228124 
