24
Energy =
C    -0.4725577    1.1776921    1.0690160 
C    -0.1446582    2.4349452    0.6705636 
C     0.8269489    2.6107385   -0.2528238 
C     0.1722024    0.1054794    0.5432106 
C     1.1458848    0.2784294   -0.3943517 
C     1.4731472    1.5422322   -0.7845976 
O    -0.7856364    3.5617718    1.1957823 
H    -1.5193094    3.3463816    1.8621171 
H     2.2519678    1.7095544   -1.5235342 
H    -0.1036249   -0.8928944    0.8728194 
H    -1.2522705    1.0265588    1.8075017 
H     1.0793697    3.6195468   -0.5608706 
C     1.8705748   -0.9188605   -0.9846882 
C     1.0558042   -1.6898955   -2.0592827 
H     2.1414436   -1.6191321   -0.1616914 
H     2.8378012   -0.6013309   -1.4332209 
C    -0.1773123   -2.3617461   -1.4800822 
O    -1.4079687   -1.7141100   -1.4338480 
O    -0.0574045   -3.6168873   -0.8957703 
H    -0.9711469   -3.9161748   -0.5794948 
N     0.7226371   -0.8410218   -3.2240466 
H     1.6893582   -2.5440992   -2.3965425 
H     1.0799686    0.1362040   -3.1290347 
H     1.1497018   -1.2398786   -4.0923616 
