24
Energy =
C    -0.1172626    2.3193215   -0.5946975 
C    -1.2373969    1.8522750    0.0186834 
C    -1.2908743    0.5620744    0.4204125 
C     0.9420950    1.4964563   -0.8000817 
C     0.8915840    0.1987596   -0.3908412 
C    -0.2356192   -0.2658653    0.2154970 
O    -2.3470391    2.6719209    0.2461479 
H    -2.2394338    3.6243604   -0.0857667 
H    -0.2996364   -1.3018778    0.5380722 
H     1.8273520    1.8828427   -1.3028426 
H    -0.0691856    3.3507816   -0.9258173 
H    -2.1911702    0.1985774    0.9054378 
C     2.0596104   -0.7294507   -0.6476646 
C     1.8921053   -1.5175776   -1.9589634 
H     2.1704883   -1.4383647    0.2015321 
H     3.0156708   -0.1566670   -0.6918051 
C     1.8635626   -0.5862349   -3.1673704 
O     2.8553627    0.3674036   -3.3547865 
O     0.8304603   -0.6731894   -4.0896518 
H     0.0159710   -0.2131539   -3.7114663 
N     2.9897246   -2.4955675   -2.0493145 
H     0.9161782   -2.0570038   -1.9456353 
H     2.7856582   -3.3026846   -1.4151407 
H     3.0297562   -2.8893291   -3.0219379 
