24
Energy =
C    -0.4659090    2.2534917   -1.0613711 
C    -0.5249225    2.4463986    0.2833332 
C     0.2371540    1.6860395    1.1017914 
C     0.3535561    1.3032820   -1.5785621 
C     1.1237983    0.5395015   -0.7556056 
C     1.0580960    0.7339867    0.5900853 
O    -1.3591631    3.4151896    0.8497289 
H    -1.8957356    3.9461686    0.1721163 
H     1.6605612    0.1313327    1.2642438 
H     0.3891681    1.1575597   -2.6556203 
H    -1.0744255    2.8574756   -1.7258383 
H     0.1794978    1.8505608    2.1723553 
C     2.0215441   -0.5322219   -1.3334943 
C     1.2288114   -1.8043621   -1.7216122 
H     2.8365428   -0.7903487   -0.6205719 
H     2.5311183   -0.1201747   -2.2357145 
C     2.0932590   -2.7796110   -2.5193721 
O     1.8981818   -2.8867495   -3.8913165 
O     3.1251354   -3.5121854   -1.9311714 
H     3.1631900   -3.3643238   -0.9356085 
N     0.6366192   -2.4409244   -0.5290739 
H     0.4074901   -1.5182790   -2.4207247 
H     1.3170338   -2.4556740    0.2663405 
H    -0.1871969   -1.8773035   -0.2101200 
