24
Energy =
C     0.0265827    1.1588576    1.3096995 
C     0.0174874    2.3891775    0.7303655 
C     0.6021104    2.5640694   -0.4763039 
C     0.6231221    0.1133878    0.6824411 
C     1.2234951    0.2909888   -0.5268731 
C     1.2022707    1.5234210   -1.1068322 
O    -0.5843550    3.4876446    1.3519634 
H    -1.0183135    3.2724638    2.2430046 
H     1.6537619    1.6815158   -2.0842644 
H     0.6143877   -0.8659054    1.1547309 
H    -0.4459791    1.0080461    2.2744439 
H     0.5775250    3.5471541   -0.9340956 
C     1.8691947   -0.8810538   -1.2371154 
C     0.8578150   -1.6456385   -2.1255884 
H     2.2983723   -1.5746466   -0.4802770 
H     2.7220508   -0.5307966   -1.8620415 
C     0.3045102   -0.7541184   -3.2334210 
O    -1.0656805   -0.6187057   -3.3993659 
O     1.1594402   -0.0462229   -4.0712746 
H     1.5252105   -0.6721577   -4.7726594 
N     1.4563478   -2.9033844   -2.6383367 
H    -0.0264454   -1.9177126   -1.5028889 
H     1.5379089   -2.9026556   -3.6827987 
H     2.4185556   -3.0800383   -2.2643384 
