24
Energy =
C    -0.4356569    0.6544556    1.3392529 
C    -0.6700660    1.9218596    0.9052649 
C    -0.0251414    2.3829240   -0.1904833 
C     0.4431994   -0.1413394    0.6788595 
C     1.1017349    0.3264148   -0.4170614 
C     0.8567950    1.5928103   -0.8527398 
O    -1.5666661    2.7688767    1.5657347 
H    -2.0241881    2.3445077    2.3651531 
H     1.3550042    1.9775771   -1.7398538 
H     0.6133387   -1.1550658    1.0321573 
H    -0.9529621    0.2738086    2.2131464 
H    -0.2291132    3.3910302   -0.5338171 
C     2.0622362   -0.5682838   -1.1700531 
C     1.3399513   -1.4153951   -2.2376287 
H     2.5850159   -1.2378770   -0.4516172 
H     2.8637308    0.0386206   -1.6487135 
C     0.6987458   -0.5365841   -3.3130239 
O    -0.6828882   -0.3960178   -3.3411555 
O     1.4653309    0.1557592   -4.2498111 
H     2.4435283   -0.0772714   -4.1557984 
N     2.3098414   -2.3643180   -2.8129251 
H     0.5040328   -1.9779241   -1.7561505 
H     2.5867118   -3.0615807   -2.0815366 
H     1.8434095   -2.9201526   -3.5713042 
