24
Energy =
C     0.3206175    2.6561316   -1.4943599 
C    -0.4700238    2.8103613   -0.4090704 
C    -0.4777549    1.8538870    0.5555798 
C     1.1033097    1.5522542   -1.6257240 
C     1.0925483    0.5839632   -0.6677408 
C     0.3019100    0.7501606    0.4295788 
O    -1.2578962    3.9619168   -0.3097456 
H    -1.8382615    3.9949689    0.5209457 
H     0.2897595    0.0086006    1.2208080 
H     1.7287886    1.4408152   -2.5079830 
H     0.3126283    3.4299251   -2.2557520 
H    -1.1052897    1.9702193    1.4316802 
C     1.9745225   -0.6462602   -0.8127699 
C     1.2486107   -1.9005028   -1.3932522 
H     2.4103896   -0.8968311    0.1811009 
H     2.8459818   -0.4145385   -1.4632695 
C     0.2102580   -2.4987275   -0.4306014 
O     0.4350051   -2.4013832    0.9333492 
O    -0.8249026   -3.3343855   -0.8242889 
H    -0.8684391   -3.3121656   -1.8286429 
N     0.7984484   -1.6670084   -2.7854528 
H     2.0122248   -2.7045235   -1.4495827 
H    -0.1476566   -2.0263095   -2.9986770 
H     0.7762196   -0.6556570   -3.0433636 
