24
Energy =
C    -0.1205956    1.4268008    1.0643988 
C     0.0532633    2.6126839    0.4238514 
C     0.7960334    2.6595240   -0.7046886 
C     0.4488094    0.2966753    0.5742117 
C     1.1908958    0.3385972   -0.5685759 
C     1.3652047    1.5322185   -1.2020074 
O    -0.5150073    3.7968241    0.9047260 
H    -1.0808466    3.6749915    1.7377103 
H     1.9591442    1.5961274   -2.1094979 
H     0.2976011   -0.6429745    1.1003561 
H    -0.7170421    1.3787708    1.9689657 
H     0.9271570    3.6128517   -1.2049913 
C     1.8280477   -0.9245241   -1.1222601 
C     0.8356073   -1.8572412   -1.8695924 
H     2.3018822   -1.4839306   -0.2845495 
H     2.6620785   -0.6656268   -1.8120162 
C    -0.2570776   -2.3981434   -0.9448413 
O    -1.4957067   -1.7708412   -0.8726068 
O    -0.0007670   -3.4587600   -0.0725518 
H     0.9239656   -3.8419067   -0.1982035 
N     0.2622659   -1.2058385   -3.0662097 
H     1.4174167   -2.7489166   -2.1988292 
H     0.6052452   -0.2283070   -3.2026984 
H     0.5177220   -1.7431331   -3.9275496 
