24
Energy =
C    -0.2784352    2.0857642   -1.8457478 
C    -0.6606953    2.5182559   -0.6219462 
C    -0.1644182    1.9287589    0.4899065 
C     0.6094347    1.0655270   -1.9622828 
C     1.1221577    0.4745020   -0.8470469 
C     0.7245444    0.9087644    0.3816999 
O    -1.5739527    3.5612705   -0.5066874 
H    -1.0961044    4.4555989   -0.4881296 
H     1.1081329    0.4364173    1.2833855 
H     0.9036711    0.7250246   -2.9519443 
H    -0.6950199    2.5593004   -2.7282219 
H    -0.4898332    2.2755033    1.4651749 
C     2.0943321   -0.6775410   -0.9745012 
C     1.3725772   -2.0266736   -1.1732086 
H     2.7431372   -0.7458073   -0.0713929 
H     2.7829288   -0.4833594   -1.8277838 
C     2.3527468   -3.1314942   -1.5586706 
O     3.7258828   -2.9376129   -1.4768053 
O     1.8730217   -4.3552527   -2.0067040 
H     1.5774661   -4.2656998   -2.9672852 
N     0.6398427   -2.3649262    0.0611131 
H     0.6603918   -1.9399379   -2.0260998 
H    -0.2490434   -1.8128623    0.0918985 
H     0.3474451   -3.3735546    0.0295762 
