24
Energy =
C     1.3260194    2.5842849   -1.1567786 
C     1.0306999    2.7671539    0.1506963 
C     0.9091347    1.6996395    0.9730842 
C     1.5121652    1.3317609   -1.6450241 
C     1.4022167    0.2524501   -0.8205163 
C     1.0911517    0.4434118    0.4917447 
O     0.8393250    4.0522320    0.6476530 
H     1.7148123    4.4430475    0.9780040 
H     0.9836430   -0.4052498    1.1627280 
H     1.7388288    1.1995258   -2.7016186 
H     1.4033102    3.4477980   -1.8088427 
H     0.6580294    1.8599827    2.0164155 
C     1.5750779   -1.1478655   -1.3667526 
C     0.2329053   -1.7674746   -1.7971497 
H     2.0551363   -1.7927100   -0.5984209 
H     2.2701989   -1.1479660   -2.2390920 
C    -0.3993197   -0.9806028   -2.9375108 
O     0.2941705   -0.7616181   -4.1208122 
O    -1.6681387   -0.4376942   -2.7872244 
H    -1.6037456    0.4034683   -2.2317810 
N     0.4761187   -3.1717472   -2.1717703 
H    -0.4927929   -1.7210848   -0.9505103 
H     0.6159240   -3.7441425   -1.3063780 
H    -0.3720075   -3.5629407   -2.6509840 
