24
Energy =
C    -0.1487312    2.2568355   -0.2741911 
C    -1.0647629    1.6726386    0.5315230 
C    -0.9084415    0.3716422    0.8938436 
C     0.9243422    1.5545796   -0.7176938 
C     1.0898104    0.2539468   -0.3520498 
C     0.1622651   -0.3361208    0.4514421 
O    -2.1554506    2.4291869    0.9714590 
H    -2.8051788    1.9257637    1.5650749 
H     0.2745130   -1.3774443    0.7430422 
H     1.6451676    2.0408792   -1.3723592 
H    -0.2863938    3.2935732   -0.5640869 
H    -1.6416258   -0.1029089    1.5362900 
C     2.2716739   -0.5403913   -0.8645576 
C     1.9350460   -1.3000446   -2.1637560 
H     2.6019936   -1.2688618   -0.0903076 
H     3.1455466    0.1300534   -1.0364594 
C     1.6808539   -0.3526119   -3.3412087 
O     2.5463119    0.7123083   -3.5677526 
O     0.6180389   -0.5514132   -4.2237409 
H     0.0894962   -1.3856847   -4.0164112 
N     3.0291164   -2.2453884   -2.4400823 
H     1.0001041   -1.8803839   -1.9955229 
H     2.7833957   -2.8235131   -3.2793214 
H     3.8953153   -1.7101966   -2.6972577 
