24
Energy =
C    -1.0529233    1.5925505    0.1020997 
C    -0.8847612    2.5190819   -0.8778290 
C     0.2143265    2.4682803   -1.6633678 
C    -0.1227497    0.6222036    0.2905118 
C     0.9817924    0.5627130   -0.5055582 
C     1.1464789    1.4985756   -1.4819229 
O    -1.8222251    3.5336830   -1.0969989 
H    -2.6250919    3.4935218   -0.4785028 
H     2.0229202    1.4810605   -2.1237776 
H    -0.2761106   -0.1144808    1.0765408 
H    -1.9328431    1.6231745    0.7355630 
H     0.3369918    3.2154063   -2.4398578 
C     2.0257798   -0.5203672   -0.2967853 
C     1.6195043   -1.9124682   -0.8528736 
H     2.2361132   -0.6126533    0.7935907 
H     2.9921043   -0.2202956   -0.7589706 
C     0.4273677   -2.5004612   -0.1177553 
O     0.6296610   -3.2365107    1.0409206 
O    -0.8736680   -2.2454107   -0.5278194 
H    -1.1365988   -2.9592403   -1.1901239 
N     1.3959346   -1.8904616   -2.3145205 
H     2.4610312   -2.6079526   -0.6224867 
H     1.5600631   -0.9446413   -2.7280406 
H     2.0692815   -2.5405671   -2.7836206 
