24
Energy =
C    -0.2614311    1.9805480    0.5141785 
C    -1.0144948    2.3661768   -0.5409980 
C    -0.7127064    1.9271023   -1.7841183 
C     0.7921041    1.1449639    0.3309597 
C     1.0997367    0.6908851   -0.9163177 
C     0.3407479    1.0916785   -1.9753794 
O    -2.0939117    3.2227501   -0.3512109 
H    -2.9474037    2.6961773   -0.1992918 
H     0.5733617    0.7467951   -2.9789499 
H     1.3866166    0.8472806    1.1913047 
H    -0.5076679    2.3473218    1.5050818 
H    -1.3191404    2.2562598   -2.6216062 
C     2.2683164   -0.2538107   -1.1236576 
C     1.9039334   -1.7491187   -0.9180821 
H     3.0920448    0.0225543   -0.4249616 
H     2.6954879   -0.1169016   -2.1409228 
C     1.5662065   -2.0843175    0.5406341 
O     2.3091713   -1.4977979    1.5584457 
O     0.6039476   -3.0313568    0.8924411 
H     0.2336758   -3.5127771    0.0874011 
N     0.8546105   -2.1642181   -1.8698450 
H     2.8186900   -2.3497583   -1.1251151 
H    -0.0454593   -1.6728517   -1.6522787 
H     1.1358414   -1.9214424   -2.8483647 
