24
Energy =
C    -0.2005412    1.5829341    0.9437997 
C     0.0717162    2.7119812    0.2516563 
C     0.9088357    2.6695835   -0.8094871 
C     0.3576700    0.4034361    0.5716292 
C     1.1890482    0.3460681   -0.5073316 
C     1.4681041    1.4928759   -1.1905543 
O    -0.5007813    3.9198607    0.6376059 
H    -1.3901945    4.0571127    0.1693940 
H     2.1398276    1.4792075   -2.0444635 
H     0.1244647   -0.4931218    1.1383436 
H    -0.8688311    1.6330914    1.7963146 
H     1.1283240    3.5851929   -1.3485174 
C     1.8110412   -0.9726562   -0.9333149 
C     0.8521969   -1.9007187   -1.7318987 
H     2.1777860   -1.5075319   -0.0289099 
H     2.7181458   -0.7852780   -1.5502472 
C    -0.3270771   -2.3875729   -0.9028206 
O    -1.4847020   -1.6297088   -0.7756130 
O    -0.2154049   -3.5647559   -0.1722011 
H     0.3215118   -3.3893065    0.6631583 
N     0.4064251   -1.2811434   -2.9988677 
H     1.4170945   -2.8350139   -1.9625318 
H     0.7873663   -0.3184324   -3.1383099 
H     0.7223854   -1.8573332   -3.8137434 
