24
Energy =
C    -0.9967424    1.5210799    0.2490098 
C    -0.9219402    2.3848230   -0.7896802 
C     0.0952177    2.2905476   -1.6766416 
C    -0.0557105    0.5543852    0.4015721 
C     0.9721643    0.4542902   -0.4870855 
C     1.0395748    1.3262043   -1.5315547 
O    -1.8877829    3.3743472   -0.9420649 
H    -2.6665814    3.0338660   -1.4950295 
H     1.8495972    1.2604096   -2.2544471 
H    -0.1321654   -0.1397739    1.2355771 
H    -1.8143587    1.6141626    0.9558526 
H     0.1476732    2.9945882   -2.5006432 
C     2.0157716   -0.6297892   -0.3332622 
C     1.7067429   -1.8618286   -1.2072335 
H     2.0974847   -0.9536529    0.7291234 
H     3.0152781   -0.2158139   -0.5990209 
C     2.9124705   -2.7861143   -1.2614538 
O     3.2668942   -3.3913943   -2.4580042 
O     3.6399703   -3.0740352   -0.1148170 
H     3.1539624   -3.8002120    0.3912962 
N     0.5204633   -2.5549286   -0.6705148 
H     1.5243760   -1.5390125   -2.2603654 
H    -0.3314432   -1.9867061   -0.8897062 
H     0.3864227   -3.4557954   -1.1921756 
