24
Energy =
C     0.5234305    2.4465674    0.1677948 
C    -0.4111888    2.7200180   -0.7717019 
C    -0.5677684    1.8936019   -1.8311160 
C     1.3013724    1.3396798    0.0548686 
C     1.1480264    0.5022134   -1.0086899 
C     0.2058909    0.7849508   -1.9510720 
O    -1.2067840    3.8552873   -0.6521758 
H    -2.0425399    3.6523168   -0.1149534 
H     0.0676854    0.1283708   -2.8067052 
H     2.0446644    1.1313731    0.8201756 
H     0.6437152    3.1236588    1.0065188 
H    -1.3145365    2.1284566   -2.5822239 
C     2.0005450   -0.7404495   -1.1363254 
C     1.2393249   -2.0225763   -0.7190320 
H     2.9336275   -0.6492039   -0.5341892 
H     2.3365292   -0.8338443   -2.1941173 
C     2.0417549   -3.2633632   -1.0713827 
O     1.5037702   -4.2315085   -1.9124471 
O     3.3377748   -3.4213422   -0.5902430 
H     3.6998965   -4.3085583   -0.9151742 
N     0.9170178   -1.9958076    0.7186510 
H     0.2926714   -2.1001653   -1.3019537 
H     1.7931544   -1.8678107    1.2800297 
H     0.2740231   -1.1975051    0.9287212 
