24
Energy =
C     1.3840597    2.4220577   -0.3240540 
C     0.3723873    2.6144356    0.5636502 
C    -0.2697951    1.5459224    1.0863577 
C     1.7485158    1.1643808   -0.6810137 
C     1.1060563    0.0857142   -0.1527533 
C     0.0907071    0.2863226    0.7334629 
O    -0.0258981    3.8963457    0.9558066 
H     0.4914016    4.6438011    0.5062366 
H    -0.4432382   -0.5578959    1.1619125 
H     2.5513611    1.0263563   -1.4004437 
H     1.9013034    3.2730214   -0.7537376 
H    -1.0793887    1.7125616    1.7884820 
C     1.5077235   -1.3198052   -0.5616856 
C     0.8210780   -1.7834381   -1.8658455 
H     1.2747109   -2.0375164    0.2568664 
H     2.6101983   -1.3624423   -0.6977383 
C    -0.6959709   -1.8912535   -1.7164248 
O    -1.2530348   -2.3189365   -0.5146179 
O    -1.5327572   -1.7034536   -2.8108342 
H    -2.4913440   -1.8466899   -2.5201902 
N     1.2359107   -0.8914576   -2.9670632 
H     1.1541178   -2.8237722   -2.0853380 
H     2.2058800   -1.1433319   -3.2671527 
H     0.6189291   -1.0490413   -3.8023041 
