24
Energy =
C     0.4050942    2.3747171    0.0003633 
C    -0.0887207    1.8906125    1.1652265 
C     0.0160468    0.5724241    1.4498890 
C     1.0250914    1.5344804   -0.8823391 
C     1.1442129    0.2117733   -0.5870507 
C     0.6284970   -0.2676338    0.5776042 
O    -0.7209319    2.7488968    2.0587716 
H    -0.0491566    3.1959687    2.6745349 
H     0.6996081   -1.3259749    0.8175742 
H     1.4185077    1.8962655   -1.8649083 
H     0.2706149    3.4378567   -0.2002639 
H    -0.3992540    0.1946099    2.3783722 
C     1.8159190   -0.7127194   -1.5770343 
C     0.8871249   -1.0560565   -2.7794932 
H     2.1593920   -1.6466492   -1.0749502 
H     2.7642278   -0.2376266   -1.9315395 
C     1.5251266   -0.6504056   -4.1213691 
O     1.6027177   -1.5649682   -5.1765836 
O     1.9864721    0.6742229   -4.3035349 
H     1.8890484    1.3111141   -3.4981470 
N     0.5423989   -2.4903697   -2.7102764 
H    -0.0484414   -0.4500530   -2.7407207 
H    -0.0786358   -2.6548649   -1.8824074 
H    -0.0228706   -2.7653943   -3.5511724 
