24
Energy =
C    -0.5566997    2.3988460   -0.5553608 
C    -0.6037780    2.1695825    0.7770581 
C     0.2007657    1.2338405    1.3316541 
C     0.3006881    1.6972882   -1.3378811 
C     1.1182556    0.7569963   -0.7865776 
C     1.0640701    0.5306117    0.5556011 
O    -1.4878271    2.8889719    1.5758960 
H    -1.0597075    3.7493134    1.9001845 
H     1.7011247   -0.2234961    1.0138740 
H     0.3255836    1.8909597   -2.4072667 
H    -1.2140138    3.1437201   -0.9891220 
H     0.1438617    1.0488860    2.3992475 
C     2.0733084   -0.0342204   -1.6555776 
C     1.5008491   -1.3800826   -2.1575179 
H     3.0152522   -0.2232563   -1.0912888 
H     2.3720678    0.5762607   -2.5383575 
C     1.1163026   -2.3459906   -1.0322716 
O     2.0220454   -3.3313327   -0.6627562 
O    -0.0963294   -2.2700498   -0.3477888 
H    -0.6305155   -1.4613269   -0.6200892 
N     0.4286834   -1.1406965   -3.1428131 
H     2.3346673   -1.9006018   -2.6870700 
H     0.0572266   -2.0581175   -3.4903589 
H    -0.3750559   -0.6321875   -2.7091722 
