24
Energy =
C     0.0128909    2.4809905   -1.0661591 
C    -0.5312290    2.4077206    0.1778942 
C    -0.2339281    1.3577042    0.9768841 
C     0.8533557    1.5076082   -1.5009797 
C     1.1617076    0.4551157   -0.6938472 
C     0.6075725    0.3831673    0.5479353 
O    -1.3966466    3.3955530    0.6578239 
H    -1.5863368    4.1388072   -0.0054549 
H     0.8235305   -0.4591911    1.2013004 
H     1.2711803    1.5651184   -2.5037020 
H    -0.2268873    3.3154670   -1.7165416 
H    -0.6836502    1.3046104    1.9626460 
C     2.0879368   -0.6392460   -1.1852335 
C     1.3420472   -1.7837934   -1.8979129 
H     2.6729631   -1.0487636   -0.3317504 
H     2.8367926   -0.2130888   -1.8893408 
C     0.3661148   -2.5086512   -0.9599828 
O    -0.9870232   -2.1884881   -0.9715792 
O     0.8217223   -3.4422807   -0.0279238 
H     1.8150071   -3.6025990   -0.1054351 
N     0.7130268   -1.2673982   -3.1283110 
H     2.1077581   -2.5347225   -2.1979081 
H     0.4210381   -2.0806832   -3.7213929 
H    -0.1771765   -0.7662151   -2.8880777 
