24
Energy =
C     0.7388883    2.1662542    0.5779273 
C     0.5040998    2.9835912   -0.4832247 
C     0.7622711    2.5437804   -1.7356369 
C     1.2318679    0.9172128    0.3807873 
C     1.5001393    0.4763831   -0.8791101 
C     1.2545722    1.2955033   -1.9386693 
O    -0.0039939    4.2757366   -0.3161485 
H    -0.1696623    4.5322609    0.6511014 
H     1.4494126    0.9571039   -2.9531146 
H     1.4022100    0.2681695    1.2368235 
H     0.5288648    2.5075330    1.5858127 
H     0.5666695    3.2044778   -2.5731927 
C     2.0282901   -0.9242868   -1.1031118 
C     0.8852867   -1.9413945   -1.2821938 
H     2.6648304   -1.2374744   -0.2442396 
H     2.6922900   -0.9336262   -1.9969770 
C     1.4061829   -3.2903930   -1.7909454 
O     2.7358804   -3.6471533   -1.5962279 
O     0.5526020   -4.2023449   -2.4107344 
H    -0.3953867   -3.8586338   -2.4590173 
N     0.1602189   -2.0589806    0.0004401 
H     0.2021007   -1.5554153   -2.0749041 
H    -0.8337530   -1.7556112   -0.1287254 
H     0.1348738   -3.0490922    0.3477920 
