24
Energy =
C     0.9612190    2.3890395    0.2916081 
C    -0.2072716    2.2583899    0.9746605 
C    -0.7566005    1.0325179    1.1292527 
C     1.5738086    1.2958560   -0.2299935 
C     1.0231954    0.0604754   -0.0726099 
C    -0.1489137   -0.0637411    0.6096850 
O    -0.8627763    3.3643807    1.5265599 
H    -0.3985438    4.2505424    1.3639906 
H    -0.6103520   -1.0395735    0.7420220 
H     2.5035429    1.4154315   -0.7809779 
H     1.4048517    3.3689981    0.1607678 
H    -1.6913132    0.9371999    1.6718820 
C     1.7003476   -1.1596687   -0.6649963 
C     1.2074336   -1.5018379   -2.0890252 
H     1.5376151   -2.0353209    0.0040476 
H     2.8009670   -1.0010224   -0.6970177 
C    -0.2736912   -1.8574445   -2.1288281 
O    -0.7739280   -2.8350265   -1.2762799 
O    -1.1248274   -1.2639405   -3.0534621 
H    -2.0579418   -1.6351152   -2.9265858 
N     1.5740553   -0.4123455   -3.0146957 
H     1.7266065   -2.4343525   -2.4085917 
H     1.3251523   -0.7073482   -3.9901342 
H     0.9500199    0.4097643   -2.8302709 
