24
Energy =
C    -0.3120701    2.5498211   -1.1766982 
C    -0.7054396    2.5175060    0.1170716 
C    -0.2114010    1.5743005    0.9512529 
C     0.5854621    1.6437144   -1.6393469 
C     1.0941650    0.6939307   -0.8043582 
C     0.6872993    0.6644703    0.4961259 
O    -1.6242819    3.4499739    0.5885833 
H    -1.1503567    4.2805029    0.9255641 
H     1.0735639   -0.0888271    1.1788118 
H     0.8869821    1.6787873   -2.6830870 
H    -0.7264889    3.3018775   -1.8385312 
H    -0.5452014    1.5503214    1.9832560 
C     2.0881747   -0.3278346   -1.3217731 
C     1.4248674   -1.6330338   -1.8179870 
H     2.8258788   -0.5664820   -0.5224231 
H     2.6757108    0.1116771   -2.1582420 
C     0.6865685   -2.3793706   -0.7125345 
O     1.3240768   -2.6383530    0.4958032 
O    -0.5939287   -2.8773883   -0.9212043 
H    -0.9040400   -3.3469365   -0.0800080 
N     0.5825790   -1.3438713   -2.9949064 
H     2.2408232   -2.3259035   -2.1253818 
H     0.2115065   -2.2496607   -3.3724462 
H    -0.2726653   -0.8256640   -2.6806816 
