24
Energy =
C    -0.3599974    2.4041215   -1.0632922 
C    -0.8233396    2.2926263    0.2098800 
C    -0.3274163    1.3298272    1.0198307 
C     0.5970131    1.5569801   -1.5170865 
C     1.1043117    0.5916379   -0.7005522 
C     0.6314603    0.4803311    0.5719692 
O    -1.8056031    3.1533935    0.7109466 
H    -2.1451864    3.8302120    0.0363313 
H     1.0075564   -0.2947193    1.2353780 
H     0.9500575    1.6536211   -2.5401996 
H    -0.7554856    3.1677391   -1.7233854 
H    -0.7134325    1.2445586    2.0298221 
C     2.1588130   -0.3703527   -1.2122877 
C     1.5431884   -1.6272074   -1.8662585 
H     2.8330612   -0.6680714   -0.3787650 
H     2.8075525    0.1475694   -1.9530830 
C     0.6963872   -2.4290130   -0.8686832 
O    -0.6922296   -2.3923918   -0.9294160 
O     1.2995826   -3.1821124    0.1414336 
H     2.3065659   -3.1502331    0.0874924 
N     0.7858129   -1.2265614   -3.0648249 
H     2.3752867   -2.2981040   -2.1795622 
H     1.4508022   -0.8837406   -3.7970708 
H     0.3022494   -2.0628166   -3.4719195 
