24
Energy =
C     0.3807540    1.4524599    1.0400532 
C    -0.5540873    2.1946350    0.3883154 
C    -0.5941981    2.1825068   -0.9632535 
C     1.2696853    0.7049234    0.3378454 
C     1.2359289    0.6987774   -1.0231904 
C     0.2930663    1.4390013   -1.6705120 
O    -1.4843995    2.9746998    1.0815706 
H    -1.3928241    2.9304501    2.0908536 
H     0.2373273    1.4344220   -2.7575981 
H     2.0072940    0.1115749    0.8730746 
H     0.4175109    1.4534240    2.1243559 
H    -1.3491852    2.7728553   -1.4716034 
C     2.2119940   -0.1556290   -1.8040999 
C     1.7235700   -1.6092226   -1.9436094 
H     3.2022676   -0.1443265   -1.2983885 
H     2.3860414    0.2669987   -2.8209886 
C     0.4216379   -1.6935051   -2.7352949 
O     0.2299647   -0.9281526   -3.8788268 
O    -0.5871421   -2.5532745   -2.3248701 
H    -1.0925478   -2.1260295   -1.5631595 
N     2.7948828   -2.3952620   -2.5784256 
H     1.5108370   -2.0242409   -0.9305977 
H     3.5522942   -2.5725902   -1.8781260 
H     2.4209252   -3.3388449   -2.8482371 
