24
Energy =
C     0.8948868    2.6221329   -0.6412089 
C    -0.3628825    2.6319099   -0.1241491 
C    -0.9091351    1.4799188    0.3262052 
C     1.5985985    1.4629240   -0.7024959 
C     1.0530786    0.3042969   -0.2392918 
C    -0.2092464    0.3185699    0.2689016 
O    -1.1152118    3.8083222   -0.0464381 
H    -0.6385146    4.6282810   -0.4055420 
H    -0.6680578   -0.6022026    0.6201691 
H     2.6001714    1.4703656   -1.1248580 
H     1.3391594    3.5406565   -1.0091390 
H    -1.9162287    1.5001068    0.7281995 
C     1.8267241   -0.9935529   -0.3245600 
C     1.4663557   -1.7844191   -1.5980978 
H     1.6247111   -1.6177148    0.5753316 
H     2.9196498   -0.7789834   -0.3024467 
C     2.4901436   -2.8925927   -1.8574774 
O     2.3079400   -4.1497556   -1.2944655 
O     3.6487266   -2.6507680   -2.5954621 
H     3.7034802   -1.6993218   -2.9262008 
N     0.0899952   -2.3011115   -1.4718293 
H     1.5086236   -1.0963589   -2.4741094 
H    -0.1830447   -2.7749968   -2.3665010 
H     0.0595620   -3.0477075   -0.7349262 
