24
Energy =
C    -1.0328223    1.1589009    0.6211464 
C    -1.2101326    2.2171806   -0.2129841 
C    -0.3035296    2.4600244   -1.1860980 
C     0.0477435    0.3502591    0.4771132 
C     0.9587805    0.5873888   -0.5090266 
C     0.7775889    1.6534792   -1.3371863 
O    -2.3113342    3.0704493   -0.0915075 
H    -2.9514421    2.8162025    0.6532257 
H     1.4945711    1.8715725   -2.1239616 
H     0.1737473   -0.4939178    1.1534855 
H    -1.7555513    0.9558451    1.4042834 
H    -0.4560611    3.3099230   -1.8425752 
C     2.1644767   -0.3205043   -0.6756585 
C     1.8495778   -1.6513785   -1.4085040 
H     2.5839819   -0.5504569    0.3309798 
H     2.9782120    0.2081067   -1.2200145 
C     0.7965521   -2.4771118   -0.6691562 
O     1.1662499   -3.1310839    0.4988192 
O    -0.5438189   -2.5039378   -1.0478960 
H    -0.6768257   -1.9909485   -1.9062405 
N     1.5078889   -1.4259676   -2.8331023 
H     2.7696092   -2.2820619   -1.3482345 
H     1.4345119   -0.4107920   -3.0763087 
H     2.2633066   -1.8185240   -3.4450893 
