24
Energy =
C    -0.0227951    1.6931804    1.0053568 
C    -0.3278104    2.6252984    0.0734115 
C     0.1073590    2.4780696   -1.1991048 
C     0.7301594    0.6149163    0.6699654 
C     1.1847425    0.4668456   -0.6052865 
C     0.8599661    1.4013965   -1.5421504 
O    -1.0992687    3.7298358    0.4203958 
H    -0.5118467    4.4892535    0.7467464 
H     1.1963547    1.2913188   -2.5701519 
H     0.9580127   -0.1354175    1.4224659 
H    -0.3947407    1.8139149    2.0167632 
H    -0.1578869    3.2246591   -1.9404653 
C     2.0018965   -0.7474895   -0.9887515 
C     1.0933574   -1.9309797   -1.3864067 
H     2.6647264   -1.0353282   -0.1430255 
H     2.6794737   -0.4867807   -1.8345473 
C     1.8562335   -3.0112085   -2.1505756 
O     1.4229561   -3.3691532   -3.4200774 
O     2.9690231   -3.6585500   -1.6137550 
H     3.2014305   -3.3136514   -0.6956529 
N     0.4164838   -2.4569440   -0.1851849 
H     0.3242814   -1.5576570   -2.1060218 
H    -0.2770283   -3.1906607   -0.4707130 
H     1.1081661   -2.9290513    0.4436666 
