24
Energy =
C     0.6572809    2.6130401   -0.6872307 
C    -0.2100516    2.5728324    0.3593420 
C    -0.4199722    1.4053670    1.0085211 
C     1.3141146    1.4900802   -1.0736645 
C     1.1086362    0.3153090   -0.4162482 
C     0.2293378    0.2779750    0.6230115 
O    -0.8983348    3.7122795    0.7881303 
H    -0.7134235    4.5435854    0.2376593 
H     0.0374795   -0.6537353    1.1490547 
H     1.9939161    1.5365575   -1.9224065 
H     0.8220580    3.5426001   -1.2200833 
H    -1.1199973    1.3824422    1.8373586 
C     1.8149930   -0.9460780   -0.8660404 
C     1.0030799   -1.7095553   -1.9282779 
H     1.9889057   -1.6131419    0.0073408 
H     2.8219496   -0.6988623   -1.2715939 
C     0.8931872   -0.9173255   -3.2263490 
O    -0.3510367   -0.5309901   -3.7005748 
O     2.0304103   -0.5338607   -3.9273385 
H     2.4051161   -1.3370442   -4.4082703 
N     1.6124902   -3.0371579   -2.1208230 
H    -0.0380093   -1.8481895   -1.5519766 
H     1.0233859   -3.5916515   -2.7880459 
H     2.5632448   -2.9425400   -2.5506398 
