24
Energy =
C     0.5365233    1.5878781    1.1860976 
C     0.4268602    2.6988369    0.4215307 
C     0.7539698    2.6524372   -0.8901152 
C     0.9861001    0.4274010    0.6435304 
C     1.3329426    0.3775298   -0.6727329 
C     1.2056731    1.4963358   -1.4396696 
O    -0.0311795    3.8871565    0.9823199 
H     0.7389335    4.4192127    1.3716427 
H     1.4533563    1.4701109   -2.4990892 
H     1.0614543   -0.4591446    1.2675487 
H     0.2532287    1.6363913    2.2316695 
H     0.6435937    3.5447673   -1.4972363 
C     1.8120418   -0.9195468   -1.2867691 
C     0.6315397   -1.7946855   -1.7690769 
H     2.4166441   -1.4779606   -0.5389234 
H     2.4960025   -0.7105569   -2.1414263 
C    -0.1519984   -1.1245063   -2.8840866 
O     0.4816155   -0.7425452   -4.0633792 
O    -1.5054261   -0.8601401   -2.7217206 
H    -1.8528528   -0.4180749   -3.5624985 
N     1.1327649   -3.1160953   -2.1893688 
H    -0.1038643   -1.9288726   -0.9405857 
H     1.7923441   -3.0049476   -2.9985344 
H     1.6575015   -3.5740462   -1.4078644 
