24
Energy =
C     0.0696463    1.6107190    1.1727071 
C    -0.4422950    2.5110968    0.3021474 
C    -0.1557063    2.4162941   -1.0165061 
C     0.8653211    0.6057780    0.7257875 
C     1.1577423    0.5032838   -0.6008364 
C     0.6392099    1.4141082   -1.4710152 
O    -1.2575630    3.5394786    0.7638216 
H    -2.2290020    3.2488950    0.7790411 
H     0.8609192    1.3477713   -2.5335243 
H     1.2675560   -0.1116560    1.4359482 
H    -0.1600708    1.7059376    2.2284030 
H    -0.5647412    3.1506135   -1.7026799 
C     2.0294896   -0.6229883   -1.1104005 
C     1.1913575   -1.7709682   -1.7246240 
H     2.6803473   -1.0147313   -0.2966775 
H     2.7251454   -0.2145642   -1.8801026 
C     2.0747983   -2.7757060   -2.4615793 
O     2.0847587   -2.7716494   -3.8514029 
O     2.9296580   -3.6495433   -1.7886924 
H     2.8244141   -3.5742246   -0.7897199 
N     0.3559782   -2.4218969   -0.6965744 
H     0.5264784   -1.3503608   -2.5160769 
H     0.8987638   -2.5783567    0.1848963 
H    -0.4445145   -1.7922306   -0.4507380 
