24
Energy =
C    -0.8172490    0.9644364    0.9375741 
C    -0.6893080    2.2251998    0.4629158 
C     0.2807137    2.5159139   -0.4336894 
C     0.0227557   -0.0136351    0.5121058 
C     1.0049864    0.2722866   -0.3873929 
C     1.1249503    1.5441117   -0.8631907 
O    -1.5520083    3.2243983    0.9012384 
H    -2.3847206    3.2564630    0.3227968 
H     1.8903631    1.7883744   -1.5975839 
H    -0.0967593   -1.0237674    0.8958864 
H    -1.5967473    0.7481004    1.6602449 
H     0.3731307    3.5303540   -0.8074824 
C     1.9242229   -0.8223305   -0.8856717 
C     1.3478788   -1.5346365   -2.1245034 
H     2.0894414   -1.5718608   -0.0795855 
H     2.9279346   -0.4041230   -1.1254832 
C     1.2278197   -0.5971181   -3.3195695 
O     0.0319578   -0.5154729   -4.0169226 
O     2.3034283    0.1825145   -3.7282648 
H     2.9465733   -0.3956575   -4.2481913 
N     2.1788562   -2.7169851   -2.4141284 
H     0.3092681   -1.8710143   -1.8929614 
H     1.7600736   -3.2471909   -3.2166455 
H     3.1378138   -2.4170277   -2.7117904 
