24
Energy =
C     1.2739117    2.5428386   -0.3612606 
C     0.2511945    2.6434876    0.5293052 
C    -0.2961537    1.5208653    1.0475914 
C     1.7430320    1.3227559   -0.7262201 
C     1.1948564    0.1912324   -0.2028330 
C     0.1694801    0.2985512    0.6868657 
O    -0.2547750    3.8852009    0.9278036 
H     0.2023288    4.6770422    0.4892219 
H    -0.2875127   -0.5912074    1.1132463 
H     2.5553702    1.2563244   -1.4460242 
H     1.7171183    3.4372692   -0.7852913 
H    -1.1140291    1.6133790    1.7536257 
C     1.7098548   -1.1722629   -0.6199711 
C     0.9452027   -1.7735300   -1.8208076 
H     1.6511724   -1.8715617    0.2450745 
H     2.7886650   -1.1027565   -0.8828465 
C    -0.5274393   -2.0205120   -1.5166067 
O    -0.8888921   -2.7483772   -0.3885174 
O    -1.5184953   -1.5838056   -2.3876762 
H    -2.4221337   -1.8523767   -2.0192043 
N     1.1648258   -0.9363857   -3.0162778 
H     1.3646371   -2.7878898   -2.0114866 
H     0.7247186   -1.4118509   -3.8413158 
H     0.6173024   -0.0483787   -2.9113530 
