24
Energy =
C     0.9884126    2.4584091   -2.0461950 
C    -0.3289695    2.6910190   -1.8048988 
C    -0.9773551    1.9541548   -0.8752181 
C     1.6479340    1.4924066   -1.3583739 
C     0.9962732    0.7465488   -0.4229151 
C    -0.3216629    0.9892772   -0.1811152 
O    -1.0374047    3.6825343   -2.4933993 
H    -0.4872628    4.1744396   -3.1887892 
H    -0.8652034    0.4074776    0.5594835 
H     2.7008967    1.3226720   -1.5638413 
H     1.5174554    3.0443961   -2.7894391 
H    -2.0296919    2.1464754   -0.6979342 
C     1.7300017   -0.3353828    0.3475294 
C     1.4433244   -1.7741448   -0.1684802 
H     1.4512887   -0.2581272    1.4224161 
H     2.8277164   -0.1527167    0.3173229 
C    -0.0346638   -2.1557831   -0.0505097 
O    -0.8628720   -2.1497209   -1.1664761 
O    -0.6010903   -2.4492768    1.1922777 
H     0.0772089   -2.4124140    1.9366568 
N     1.9500227   -1.9660969   -1.5445953 
H     1.9736744   -2.4821766    0.5098717 
H     2.4286850   -1.1188404   -1.9259542 
H     2.6404807   -2.7523319   -1.5767132 
