24
Energy =
C     1.2607952    2.4953224   -1.5866649 
C    -0.0303393    2.8513132   -1.3949648 
C    -0.8509077    2.0578545   -0.6691437 
C     1.7353267    1.3398109   -1.0561695 
C     0.9161447    0.5371201   -0.3218593 
C    -0.3840132    0.9003441   -0.1362642 
O    -0.5145255    4.0356598   -1.9414501 
H    -0.8902249    3.8701596   -2.8694572 
H    -1.0588835    0.2636397    0.4287567 
H     2.7678244    1.0518421   -1.2396968 
H     1.9062921    3.1384759   -2.1747916 
H    -1.8839019    2.3549678   -0.5247863 
C     1.4365539   -0.7753794    0.2289509 
C     1.3592223   -1.9737510   -0.7807689 
H     0.8662296   -1.0404698    1.1472129 
H     2.4685786   -0.6016250    0.6008649 
C     0.7109192   -1.6245105   -2.1298870 
O     1.4883453   -1.1281338   -3.1716331 
O    -0.6718619   -1.7197749   -2.3164784 
H    -1.1495180   -2.0486941   -1.4913978 
N     2.6834406   -2.6039633   -0.9871107 
H     0.6833746   -2.7346166   -0.3264048 
H     3.4614061   -2.1718974   -0.4393165 
H     2.6491676   -3.6188317   -0.7297147 
