24
Energy =
C    -0.8082214    0.8876184    0.9788464 
C    -0.8543025    2.1291768    0.4428252 
C     0.0367802    2.4888501   -0.5090643 
C     0.1274472   -0.0024075    0.5599083 
C     1.0301661    0.3538204   -0.3958124 
C     0.9755769    1.6047110   -0.9331613 
O    -1.8154158    3.0382073    0.8735069 
H    -2.6654555    2.9414055    0.3287885 
H     1.6759855    1.9015990   -1.7113280 
H     0.1472196   -0.9991274    0.9932287 
H    -1.5264285    0.6154574    1.7444624 
H    -0.0106769    3.4876632   -0.9300779 
C     2.0560781   -0.6450892   -0.8853779 
C     1.4937754   -1.5436783   -2.0123412 
H     2.3843694   -1.2796227   -0.0325581 
H     2.9649884   -0.1173244   -1.2555136 
C     1.0889709   -0.7196205   -3.2290204 
O    -0.2286707   -0.7205776   -3.6706232 
O     2.0306612    0.0528411   -3.8997879 
H     1.5782717    0.5060132   -4.6837950 
N     2.4550005   -2.6244646   -2.3464605 
H     0.5528994   -2.0207841   -1.6524229 
H     2.7634219   -2.5587889   -3.3478657 
H     3.3350833   -2.5696044   -1.7820659 
