24
Energy =
C     1.1212974    2.6362915   -1.0840346 
C     0.9352085    2.7326435    0.2524474 
C     0.9722790    1.6211894    1.0231289 
C     1.3572975    1.4274524   -1.6540942 
C     1.4080444    0.3051409   -0.8828719 
C     1.2052635    0.4080189    0.4600804 
O     0.6925283    3.9729164    0.8333501 
H     1.5619546    4.4186421    1.1049612 
H     1.2249159   -0.4773122    1.0907464 
H     1.4927966    1.3631557   -2.7324073 
H     1.0704496    3.5330767   -1.6924575 
H     0.8062345    1.7112286    2.0916718 
C     1.6373112   -1.0485988   -1.5181140 
C     0.3045169   -1.7556725   -1.8574008 
H     2.2378663   -1.6816364   -0.8284462 
H     2.2459459   -0.9398627   -2.4458391 
C    -0.5062803   -0.9656786   -2.8716058 
O     0.0076536   -0.7165328   -4.1382090 
O    -1.7242938   -0.4044759   -2.5119837 
H    -1.5587382    0.4300305   -1.9685318 
N     0.5766856   -3.1219310   -2.3400306 
H    -0.3410944   -1.8148938   -0.9495284 
H     1.0966854   -3.0808019   -3.2516747 
H     1.1677973   -3.6480191   -1.6548540 
