24
Energy =
C     0.6802612    1.6823949    1.0704039 
C    -0.0981635    2.5604097    0.3968062 
C    -0.1754258    2.5001988   -0.9519656 
C     1.3792842    0.7337805    0.3963203 
C     1.3042310    0.6634272   -0.9624471 
C     0.5215126    1.5556000   -1.6330107 
O    -0.8127234    3.5314345    1.0907205 
H    -1.7254086    3.1803077    1.3603375 
H     0.4429440    1.5148690   -2.7169099 
H     1.9994946    0.0331783    0.9499644 
H     0.7398422    1.7493280    2.1514855 
H    -0.7995461    3.2127975   -1.4809153 
C     2.0784048   -0.4045060   -1.7085158 
C     1.4018382   -1.7952807   -1.6072733 
H     3.1046576   -0.4526744   -1.2821249 
H     2.2090173   -0.1292261   -2.7798777 
C     0.1258365   -1.9222243   -2.4495418 
O    -0.3288388   -0.8607220   -3.2239363 
O    -0.6099020   -3.1038533   -2.4505991 
H    -0.0954987   -3.8318313   -1.9760282 
N     2.3772930   -2.8417337   -1.9631305 
H     1.0736344   -1.9649359   -0.5557000 
H     2.7611770   -2.6642536   -2.9239798 
H     3.1853122   -2.8248741   -1.2953604 
