24
Energy =
C     0.4830888    2.2639328    0.2913792 
C    -0.4468483    2.6608439   -0.6176333 
C    -0.5947496    1.9671679   -1.7688953 
C     1.2607137    1.1798171    0.0424509 
C     1.1187912    0.4855881   -1.1199726 
C     0.1791140    0.8810564   -2.0224485 
O    -1.2636981    3.7738078   -0.3945591 
H    -1.1004436    4.2348393    0.4942236 
H     0.0400436    0.3317848   -2.9500890 
H     1.9905301    0.8640802    0.7844407 
H     0.6034921    2.8088752    1.2213943 
H    -1.3444483    2.2930481   -2.4818392 
C     1.9685595   -0.7375672   -1.3875629 
C     1.3240726   -2.0165042   -0.8020409 
H     2.9858272   -0.5996498   -0.9554622 
H     2.1215637   -0.8550476   -2.4847185 
C     2.0024672   -3.2941977   -1.2935777 
O     3.2180186   -3.2242234   -1.9676910 
O     1.4228241   -4.5471860   -1.0945488 
H     0.5967081   -4.4861769   -0.5151823 
N     1.3255076   -1.9354254    0.6640910 
H     0.2702777   -2.0743346   -1.1536937 
H     0.7335228   -2.7115109    1.0366297 
H     2.2980089   -2.0750988    1.0323197 
