24
Energy =
C     0.2670170    2.2442549    0.3588117 
C    -0.4177618    2.7137318   -0.7181244 
C    -0.2678924    2.1116930   -1.9196988 
C     1.0982575    1.1795678    0.2271217 
C     1.2567099    0.5783386   -0.9836862 
C     0.5615027    1.0457990   -2.0567471 
O    -1.2820232    3.8088235   -0.6183973 
H    -1.3429015    4.2014975    0.3147904 
H     0.6643865    0.5699695   -3.0286512 
H     1.6293866    0.8049096    1.0986584 
H     0.1482529    2.7153971    1.3284094 
H    -0.8240361    2.4942305   -2.7686462 
C     2.1651555   -0.6224699   -1.1277274 
C     1.4092409   -1.9379109   -0.8543321 
H     3.0304838   -0.5364635   -0.4318033 
H     2.6004483   -0.6393880   -2.1528938 
C     2.2233418   -3.1371613   -1.3064662 
O     3.3833142   -3.5030672   -0.6329160 
O     1.8249481   -3.8596045   -2.4224571 
H     2.4855008   -4.6108960   -2.5784046 
N     1.0535178   -2.0071304    0.5765279 
H     0.4811781   -1.9609157   -1.4744417 
H     0.4804093   -2.8678133    0.7488364 
H     1.9269547   -2.1221902    1.1465788 
