24
Energy =
C    -0.1494848    2.1587754   -1.9376694 
C    -0.4556730    2.7238129   -0.7470521 
C     0.0462092    2.2051543    0.3972366 
C     0.6549665    1.0666606   -1.9876876 
C     1.1629732    0.5381243   -0.8397398 
C     0.8517751    1.1133251    0.3555213 
O    -1.2811800    3.8428911   -0.6994012 
H    -2.2543465    3.5674668   -0.6264495 
H     1.2438458    0.7061603    1.2840851 
H     0.8910061    0.6214772   -2.9511983 
H    -0.5511770    2.5909898   -2.8476458 
H    -0.1999538    2.6731294    1.3446445 
C     2.0484373   -0.6866999   -0.8951395 
C     1.2397996   -1.9891967   -1.1111320 
H     2.6623650   -0.7789761    0.0300978 
H     2.7792137   -0.5596241   -1.7259954 
C     2.1689534   -3.1604172   -1.3828395 
O     2.0593601   -3.8837800   -2.5656073 
O     3.1660657   -3.4917526   -0.4706406 
H     3.6665513   -4.3009342   -0.8150367 
N     0.3717165   -2.2648947    0.0470427 
H     0.6062991   -1.8862623   -2.0220455 
H     0.9468190   -2.3089409    0.9224171 
H    -0.3337468   -1.5000861    0.1579526 
