24
Energy =
C     1.1492213    2.6042975   -1.2062630 
C     0.9965320    2.7768055    0.1268614 
C     1.0689257    1.7129796    0.9599004 
C     1.3696762    1.3645521   -1.7126159 
C     1.4462436    0.2889027   -0.8795671 
C     1.2885812    0.4696133    0.4610986 
O     0.7707615    4.0490465    0.6422903 
H    -0.2225317    4.2500750    0.6805153 
H     1.3403900   -0.3767205    1.1417200 
H     1.4792703    1.2393491   -2.7884515 
H     1.0942275    3.4666950   -1.8620132 
H     0.9521886    1.8662808    2.0277327 
C     1.6640138   -1.0989575   -1.4415204 
C     0.3404744   -1.8476708   -1.6676755 
H     2.3058741   -1.6882079   -0.7497501 
H     2.2228723   -1.0519268   -2.4052359 
C    -0.5503098   -1.1132002   -2.6632609 
O    -0.1372587   -0.9226997   -3.9751528 
O    -1.7657195   -0.5833441   -2.2524352 
H    -1.5990798    0.2870425   -1.7687814 
N     0.6763875   -3.2199995   -2.1012335 
H    -0.2352920   -1.8765301   -0.7115554 
H     0.4507918   -3.8984722   -1.3363111 
H     0.1062314   -3.5099080   -2.9345278 
