24
Energy =
C     0.8320615    2.6302060   -0.1945936 
C    -0.3283356    2.4799458    0.4984479 
C    -0.7467414    1.2404985    0.8405434 
C     1.5674628    1.5421208   -0.5381026 
C     1.1525963    0.2941501   -0.1839982 
C    -0.0149709    0.1494893    0.5007783 
O    -1.1094647    3.5792081    0.8686107 
H    -0.7330655    4.4727932    0.5710129 
H    -0.3733639   -0.8402777    0.7707097 
H     2.4884800    1.6770505   -1.1002277 
H     1.1724055    3.6202461   -0.4785475 
H    -1.6782595    1.1336598    1.3854400 
C     1.9590576   -0.9219248   -0.5867022 
C     1.4746872   -1.4929007   -1.9360109 
H     1.8904862   -1.6960280    0.2087047 
H     3.0361543   -0.6451059   -0.6569148 
C     2.4993602   -2.4405925   -2.5604833 
O     2.9986924   -2.1571893   -3.8245854 
O     2.9522680   -3.5845551   -1.9020715 
H     2.5408197   -3.6868735   -0.9883551 
N     0.1515541   -2.1207600   -1.7582514 
H     1.3780130   -0.6460768   -2.6575152 
H    -0.2504933   -2.3397038   -2.7016691 
H     0.2401248   -3.0340311   -1.2531918 
