24
Energy =
C    -1.0570491    1.4093757    0.2115041 
C    -0.3845359    2.5687538    0.0317209 
C     0.9411999    2.5366238   -0.2702387 
C    -0.4167510    0.2182211    0.0975269 
C     0.9122814    0.1804868   -0.1933137 
C     1.5862556    1.3480309   -0.3867221 
O    -1.0788900    3.7761061    0.1598286 
H    -0.5072048    4.5991055    0.0037865 
H     2.6440268    1.3403129   -0.6390800 
H    -0.9759799   -0.7052479    0.2263766 
H    -2.1163022    1.4479683    0.4417065 
H     1.4874294    3.4612752   -0.4230659 
C     1.6234077   -1.1466930   -0.3430825 
C     1.4675373   -1.7117773   -1.7668697 
H     1.2295417   -1.8811370    0.3944252 
H     2.7038284   -1.0223071   -0.1020907 
C     2.4552494   -2.8420414   -2.0061927 
O     2.2669836   -4.0854441   -1.4143964 
O     3.5967682   -2.6156489   -2.7601334 
H     4.1315075   -3.4743890   -2.8015250 
N     0.0675050   -2.1306125   -1.9728876 
H     1.7315372   -0.9167658   -2.5047713 
H    -0.0649655   -2.3724220   -2.9841008 
H    -0.1137926   -3.0173236   -1.4410168 
