24
Energy =
C     0.5657947    2.5480277   -0.3040608 
C    -0.6201189    2.3793186    0.3251175 
C    -1.0675155    1.1332650    0.6026812 
C     1.3169017    1.4698600   -0.6447141 
C     0.8798100    0.2123775   -0.3552504 
C    -0.3233808    0.0497323    0.2626911 
O    -1.3846009    3.4865619    0.6797439 
H    -1.1375938    3.8096977    1.6082996 
H    -0.6992973   -0.9461058    0.4836001 
H     2.2625953    1.6205564   -1.1605524 
H     0.9024567    3.5517272   -0.5393048 
H    -2.0286241    1.0121962    1.0911377 
C     1.7015712   -0.9945718   -0.7536269 
C     1.2789509   -1.5522618   -2.1335789 
H     1.5848040   -1.7854894    0.0197431 
H     2.7846575   -0.7339551   -0.7796717 
C     1.5164470   -0.5316422   -3.2392518 
O     0.4564334   -0.0736571   -4.0116319 
O     2.7956644   -0.0455843   -3.4841688 
H     2.7496272    0.6038796   -4.2592469 
N     1.9507718   -2.8484907   -2.4010807 
H     0.1784157   -1.7306776   -2.1269251 
H     2.5662507   -2.7867466   -3.2493729 
H     2.5824012   -3.1447794   -1.6207393 
