24
Energy =
C    -0.9920277    1.4406347    0.3158717 
C    -0.9207941    2.3427709   -0.6899188 
C     0.0895427    2.2778424   -1.5872681 
C    -0.0460773    0.4738934    0.4334856 
C     0.9804808    0.4093525   -0.4599594 
C     1.0392998    1.3142931   -1.4764732 
O    -1.8936550    3.3299798   -0.8085906 
H    -1.6370953    4.1521913   -0.2733553 
H     1.8428041    1.2713519   -2.2083028 
H    -0.1215913   -0.2533026    1.2389468 
H    -1.8171248    1.4961216    1.0179305 
H     0.1275980    2.9992352   -2.3969681 
C     2.0264640   -0.6775142   -0.3484060 
C     1.7184332   -1.8768077   -1.2672629 
H     2.1102745   -1.0411315    0.7008707 
H     3.0245125   -0.2519687   -0.6007363 
C     2.9251452   -2.7971368   -1.3540723 
O     3.2894312   -3.3477069   -2.5738350 
O     3.6460691   -3.1335189   -0.2164318 
H     3.1588971   -3.8828713    0.2535563 
N     0.5325750   -2.5902513   -0.7568127 
H     1.5362278   -1.5159306   -2.3081301 
H    -0.3196013   -2.0134920   -0.9528374 
H     0.3970213   -3.4691601   -1.3142118 
