24
Energy =
C     0.6544035    2.6331465   -1.1531873 
C     0.2964810    2.7963664    0.1411480 
C     0.4743925    1.7881335    1.0255615 
C     1.1888371    1.4567252   -1.5693522 
C     1.3722964    0.4371487   -0.6840723 
C     1.0053495    0.6076843    0.6163485 
O    -0.2492402    4.0037959    0.5641624 
H    -1.2569723    4.0019321    0.4476784 
H     1.1339337   -0.1972866    1.3360599 
H     1.4595793    1.3285613   -2.6164831 
H     0.5069362    3.4522179   -1.8489223 
H     0.1872849    1.9337449    2.0618829 
C     1.9373398   -0.8870736   -1.1501095 
C     0.8314658   -1.8486306   -1.6252369 
H     2.5045930   -1.3699686   -0.3230239 
H     2.6731424   -0.7303171   -1.9712554 
C     0.0861408   -1.3172758   -2.8372104 
O     0.7751820   -0.7961035   -3.9272947 
O    -1.2993544   -1.3549141   -2.8660878 
H    -1.6170366   -0.9942811   -3.7571170 
N     1.4403897   -3.1645134   -1.8848406 
H     0.0629837   -1.9478094   -0.8214106 
H     0.6818491   -3.8421913   -2.1409932 
H     2.0588701   -3.0950397   -2.7295889 
