24
Energy =
C     0.6681594    2.5590372   -0.2333875 
C    -0.5162366    2.4046899    0.4022858 
C    -0.9727146    1.1644452    0.6911069 
C     1.3986977    1.4716055   -0.5884334 
C     0.9459504    0.2194823   -0.3000951 
C    -0.2482880    0.0717727    0.3384756 
O    -1.2634233    3.5212868    0.7640242 
H    -1.8956920    3.7838787    0.0157739 
H    -0.6306148   -0.9192710    0.5698336 
H     2.3431926    1.6114920   -1.1096623 
H     1.0236598    3.5591651   -0.4556265 
H    -1.9214615    1.0553564    1.2058543 
C     1.7420356   -0.9976797   -0.7178397 
C     1.2688544   -1.5631960   -2.0665381 
H     1.6545831   -1.7860087    0.0616691 
H     2.8277127   -0.7568403   -0.7877150 
C     1.4932990   -0.5682795   -3.2009229 
O     0.4641191   -0.2817784   -4.0895204 
O     2.7310676    0.0393686   -3.3791789 
H     2.6839159    0.6357963   -4.1952978 
N     1.9698362   -2.8461169   -2.2821188 
H     0.1667147   -1.7345246   -2.0197801 
H     1.2818655   -3.6336429   -2.2272862 
H     2.3956766   -2.8931619   -3.2401809 
