24
Energy =
C     0.4877300    2.4973478   -1.0685172 
C     0.8606487    2.8315627    0.1953361 
C     1.4394857    1.9020228    0.9900729 
C     0.7001179    1.2404480   -1.5314677 
C     1.2795982    0.2960129   -0.7362669 
C     1.6558984    0.6429069    0.5316611 
O     0.6735439    4.1241727    0.6917912 
H     0.2039891    4.7448276    0.0426861 
H     2.1358870   -0.0791621    1.1861552 
H     0.4182459    1.0024569   -2.5531925 
H     0.0287917    3.2358017   -1.7185031 
H     1.7347670    2.1735476    1.9984672 
C     1.5903925   -1.0741900   -1.3160063 
C     0.2275006   -1.9553901   -1.6122872 
H     2.0752225   -1.6478780   -0.4917535 
H     2.2465293   -0.9924548   -2.2118550 
C     0.5659236   -3.0150621   -2.4936672 
O     0.9236785   -2.7470006   -3.8721478 
O     0.4495218   -4.2477935   -1.7000873 
H     0.7596539   -5.2283316   -2.1838597 
N    -0.2647689   -2.9017276   -0.4841114 
H    -0.5141718   -1.2232980   -2.1383327 
H    -1.0071813   -2.6981894    0.4155089 
H    -0.0588297   -2.0081389   -0.4195752 
