24
Energy =
C     0.3365132    2.1690854   -0.1936724 
C     1.0850350    2.2945032    0.9349504 
C     1.9915163    1.3365728    1.2474074 
C     0.5063123    1.0874121   -0.9910849 
C     1.3989643    0.1189035   -0.6797258 
C     2.1559871    0.2525396    0.4428090 
O     0.9459953    3.3929537    1.7888565 
H     0.2523883    4.0688649    1.4861633 
H     2.8963669   -0.4995798    0.7037066 
H    -0.0926099    0.8650021   -1.9822003 
H    -0.3932895    2.9249148   -0.4612499 
H     2.5857157    1.4530154    2.1475302 
C     1.5899562   -1.0526090   -1.6334762 
C     0.2651621   -1.6172075   -2.2314799 
H     2.1070557   -1.8818605   -1.0992450 
H     2.2650750   -0.7419692   -2.4618207 
C    -0.4239938   -0.6618732   -3.2507606 
O    -0.6580496    0.6721483   -2.9050292 
O    -0.9133105   -1.0795315   -4.4894998 
H    -0.6996281   -2.0359678   -4.7181043 
N     0.5553449   -2.9541822   -2.7700812 
H    -0.4604537   -1.7378496   -1.3961483 
H    -0.3358738   -3.4620369   -2.9854625 
H     1.1235808   -2.8687506   -3.6445415 
