24
Energy =
C    -0.3407719    2.2703036   -1.3444973 
C    -1.1848734    2.0969934   -0.3016575 
C    -0.9493075    1.1212912    0.6052178 
C     0.7532042    1.4754417   -1.4757535 
C     1.0053154    0.5012347   -0.5574562 
C     0.1406956    0.3218176    0.4794940 
O    -2.3017823    2.9149724   -0.1689500 
H    -2.0754368    3.7508223    0.3585313 
H     0.3125107   -0.4635486    1.2115986 
H     1.4195313    1.6068205   -2.3284919 
H    -0.5593825    3.0422223   -2.0753373 
H    -1.6440311    0.9814652    1.4270338 
C     2.2108858   -0.4009854   -0.7100157 
C     1.8958617   -1.6441557   -1.5752249 
H     2.5615662   -0.7235683    0.2948942 
H     3.0596506    0.1569781   -1.1682880 
C     1.5701519   -1.2769465   -3.0160125 
O     0.5801927   -1.9640189   -3.7071819 
O     2.2492696   -0.2427909   -3.6588078 
H     1.9689611   -0.2395392   -4.6330457 
N     3.0254417   -2.5875896   -1.5154635 
H     0.9853377   -2.1510441   -1.1800106 
H     3.8885621   -2.1298059   -1.8964239 
H     3.2146773   -2.8652066   -0.5242417 
