24
Energy =
C    -0.3342834    1.8478631    0.5795101 
C    -0.1067876    2.8245745   -0.3277249 
C     0.7612477    2.6155690   -1.3435421 
C     0.2994529    0.6524937    0.4683478 
C     1.1655007    0.4277545   -0.5602583 
C     1.3975637    1.4224053   -1.4627808 
O    -0.7586011    4.0481919   -0.2104971 
H    -1.6432436    4.0275885   -0.7059295 
H     2.0941221    1.2741408   -2.2830059 
H     0.1056854   -0.1240281    1.2053135 
H    -1.0256899    2.0340878    1.3940649 
H     0.9435833    3.4116561   -2.0574807 
C     1.8680275   -0.9109050   -0.6901986 
C     0.9903100   -2.0155243   -1.3396903 
H     2.1866940   -1.2502836    0.3221759 
H     2.8077896   -0.8010429   -1.2750109 
C    -0.2795154   -2.2821994   -0.5462591 
O    -0.1897637   -2.9102960    0.6917008 
O    -1.5244661   -1.8527529   -0.9897460 
H    -2.2247910   -2.1399704   -0.3210821 
N     0.7020748   -1.7279195   -2.7615230 
H     1.5609680   -2.9708136   -1.2672709 
H     1.1251595   -0.8297511   -3.0859890 
H     1.0906376   -2.4875582   -3.3673812 
