24
Energy =
C     0.3531306    2.3551868    0.2259188 
C    -0.6509690    2.5585579   -0.6683997 
C    -0.7938034    1.7152708   -1.7159123 
C     1.2073191    1.3124309    0.0673471 
C     1.0661085    0.4652280   -0.9892476 
C     0.0571351    0.6709818   -1.8794505 
O    -1.5485131    3.6227733   -0.5341421 
H    -1.3753966    4.2099113    0.2745445 
H    -0.0760088    0.0026476   -2.7265088 
H     2.0020599    1.1602589    0.7934896 
H     0.4741772    3.0251885    1.0703006 
H    -1.5996415    1.8872563   -2.4210594 
C     2.0048363   -0.7078238   -1.1632440 
C     1.3642001   -2.0438940   -0.7131077 
H     2.9553984   -0.5428783   -0.6062338 
H     2.2955436   -0.7740578   -2.2367129 
C     2.2263690   -3.2220041   -1.1283555 
O     3.5234063   -3.3551789   -0.6421124 
O     1.7483903   -4.1477775   -2.0465992 
H     2.4561944   -4.8569981   -2.1862418 
N     1.1314910   -2.0488858    0.7417209 
H     0.3911413   -2.1889134   -1.2371490 
H     2.0291710   -1.8571745    1.2483193 
H     0.4480100   -1.2991717    0.9985962 
