24
Energy =
C    -0.1073530    1.9094374    0.6809035 
C    -0.3881263    2.6492305   -0.4249220 
C     0.0879025    2.2588641   -1.6291260 
C     0.6478429    0.7863799    0.5763464 
C     1.1317665    0.3955663   -0.6351045 
C     0.8427700    1.1362282   -1.7399022 
O    -1.1637963    3.8103374   -0.3528469 
H    -1.4800920    4.0395575    0.5833082 
H     1.2138080    0.8370922   -2.7172054 
H     0.8570608    0.1966667    1.4667852 
H    -0.4885353    2.2128264    1.6502023 
H    -0.1454369    2.8578997   -2.5028517 
C     1.9585491   -0.8654478   -0.7591573 
C     1.1100941   -2.0841255   -1.1894641 
H     2.4638838   -1.1018376    0.2057447 
H     2.7786366   -0.6915180   -1.4929559 
C     1.9978659   -3.2747708   -1.5653597 
O     3.3539363   -3.2663320   -1.2545822 
O     1.4833651   -4.3694108   -2.2595745 
H     0.4815085   -4.3086360   -2.3574739 
N     0.1769780   -2.4284767   -0.1022186 
H     0.5411449   -1.8250516   -2.1116961 
H    -0.5731318   -1.6991211   -0.0428055 
H    -0.3209094   -3.3186388   -0.3352398 
