24
Energy =
C     0.0975219    2.5663828   -1.3780064 
C    -0.3869349    2.6757381   -0.1203708 
C    -0.1218415    1.7139093    0.7924540 
C     0.8573457    1.4979768   -1.7258069 
C     1.1320617    0.5224336   -0.8125578 
C     0.6399747    0.6428130    0.4533059 
O    -1.1605392    3.7768946    0.2339417 
H    -0.5753344    4.5385430    0.5582874 
H     0.8422439   -0.1185830    1.2010657 
H     1.2427706    1.4328416   -2.7393609 
H    -0.1312916    3.3390016   -2.1030641 
H    -0.5287564    1.8055577    1.7941363 
C     1.9881425   -0.6730869   -1.1946692 
C     1.1752494   -1.9546614   -1.5305303 
H     2.6955787   -0.8911689   -0.3637404 
H     2.6296952   -0.4183985   -2.0677029 
C     0.3612276   -2.4655883   -0.3504357 
O    -0.9362095   -2.0250784   -0.1213085 
O     0.9502484   -3.3241535    0.5713328 
H     1.5453937   -2.7921870    1.1875265 
N     0.3360695   -1.7791494   -2.7360350 
H     1.9129514   -2.7704966   -1.7172076 
H     0.3993939   -0.8184874   -3.1417891 
H     0.6334769   -2.4476187   -3.4849767 
