24
Energy =
C    -0.1132000    2.4987062   -1.2603569 
C    -0.4437579    2.5978188    0.0406712 
C     0.0537362    1.6955518    0.9330661 
C     0.6804306    1.5483682   -1.7271849 
C     1.1910784    0.6030450   -0.8069240 
C     0.8728656    0.6974117    0.4826037 
O    -1.2908171    3.6404734    0.4445297 
H    -1.4587987    3.6035066    1.4414493 
H     1.4587492   -0.1303891    0.9882640 
H     0.8189200    1.6880798   -2.8467131 
H    -0.4640462    3.1733934   -1.9804816 
H    -0.1833818    1.7714648    1.9881818 
C     2.0777028   -0.6474711   -0.9967762 
C     1.2159781   -1.9004980   -1.3947124 
H     2.7427163   -0.9063906   -0.1002565 
H     2.7009908   -0.4770636   -1.9704188 
C     1.8256290   -2.8554983   -2.4890546 
O     2.6487851   -2.3602938   -3.5180747 
O     1.4507591   -4.2044512   -2.6116716 
H     0.6939465   -4.4591286   -2.0051693 
N     0.9346021   -2.5951389   -0.1418209 
H     0.2504503   -1.5575238   -1.8265143 
H     0.2528596   -3.3695394   -0.2651438 
H     1.8542898   -2.9410080    0.2113388 
