24
Energy =
C     1.1379965    2.7102575   -0.5987567 
C    -0.1306543    2.8929328   -0.1659212 
C    -0.8522684    1.8379560    0.2775264 
C     1.6943672    1.4726991   -0.5775288 
C     0.9789842    0.4076085   -0.1199018 
C    -0.3013008    0.5973051    0.3045325 
O    -0.6961834    4.1652441   -0.1841447 
H    -0.5066046    4.6537704    0.6837397 
H    -0.8977160   -0.2428718    0.6535739 
H     2.7107995    1.3378746   -0.9386320 
H     1.6988579    3.5610738   -0.9685553 
H    -1.8754288    1.9947264    0.6017975 
C     1.5932332   -0.9773419   -0.1066295 
C     1.2373660   -1.8144016   -1.3576986 
H     1.2764953   -1.5099904    0.8169297 
H     2.7022079   -0.8966614   -0.0401341 
C    -0.2695762   -2.0368741   -1.5186701 
O    -0.9575093   -1.4501489   -2.5733541 
O    -0.9814077   -2.8270997   -0.6156740 
H    -0.3874760   -3.2177141    0.0988753 
N     1.8684057   -1.2032247   -2.5419957 
H     1.6683783   -2.8331364   -1.2221976 
H     1.6996140   -1.8150296   -3.3765347 
H     1.3811161   -0.3007349   -2.7642528 
