24
Energy =
C     0.0044128    2.1231068   -0.2444368 
C     0.9790278    2.6332824    0.5421223 
C     2.1906911    2.0142342    0.6008071 
C     0.2380066    0.9994942   -0.9640791 
C     1.4338630    0.3625570   -0.9027716 
C     2.4196916    0.8859822   -0.1237327 
O     0.7108232    3.7917926    1.2756392 
H     1.4885295    4.1270377    1.8343555 
H     3.3975651    0.4124746   -0.0786430 
H    -0.5428325    0.4780573   -1.6780364 
H    -0.9567895    2.6248363   -0.2935869 
H     2.9786428    2.4255179    1.2228219 
C     1.6801647   -0.8743470   -1.7627070 
C     0.4241133   -1.8114197   -1.9095832 
H     2.5252855   -1.4503616   -1.3258798 
H     2.0098553   -0.5462501   -2.7761760 
C    -0.7042978   -1.1859820   -2.7555511 
O    -1.2827222    0.0043320   -2.3402590 
O    -1.2201765   -1.7363163   -3.9187542 
H    -0.5138411   -2.3149387   -4.3680726 
N     0.7876631   -3.1288810   -2.4326099 
H    -0.0129998   -1.9710297   -0.9025032 
H     0.9524906   -3.0227761   -3.4667042 
H     1.6543691   -3.4962598   -1.9598918 
