24
Energy =
C    -0.2203519    1.3392363    1.1937503 
C    -0.2626916    2.5005162    0.4877252 
C     0.4105331    2.5968174   -0.6812054 
C     0.4968313    0.2845010    0.7294660 
C     1.1836027    0.3838294   -0.4419050 
C     1.1286528    1.5451054   -1.1507516 
O    -0.9910245    3.6063162    0.9381152 
H    -1.4719295    3.4532033    1.8177632 
H     1.6551317    1.6411490   -2.0973884 
H     0.5081225   -0.6442645    1.2945502 
H    -0.7644170    1.2497220    2.1277936 
H     0.3632719    3.5267478   -1.2373818 
C     1.9665562   -0.7974409   -0.9727531 
C     1.0711734   -1.7474602   -1.7900484 
H     2.4391925   -1.3567299   -0.1351284 
H     2.8076022   -0.4323020   -1.6063772 
C     1.9235073   -2.7162097   -2.5991144 
O     2.3156327   -2.3721333   -3.8837346 
O     2.4108619   -3.8895152   -2.0377573 
H     1.6685219   -4.5718693   -2.0063260 
N     0.1242156   -2.4263163   -0.8838755 
H     0.5006062   -1.1476780   -2.5386693 
H    -0.5598322   -2.9810867   -1.4515478 
H     0.6375698   -3.1021348   -0.2679996 
