24
Energy =
C     0.4321378    1.8501456    1.0760747 
C     0.1556933    2.7740449    0.1175917 
C     0.4815411    2.5189393   -1.1694890 
C     1.0312654    0.6780870    0.7434964 
C     1.3580352    0.4191696   -0.5529946 
C     1.0803156    1.3490405   -1.5081334 
O    -0.4598537    3.9915375    0.4260947 
H    -0.6781433    4.1143011    1.4084137 
H     1.3360259    1.1619821   -2.5480059 
H     1.2464472   -0.0485154    1.5226067 
H     0.1739365    2.0497830    2.1095844 
H     0.2569598    3.2633992   -1.9265598 
C     2.0223676   -0.8873191   -0.9348424 
C     1.0533380   -1.8545877   -1.6654306 
H     2.4519522   -1.3977132   -0.0429676 
H     2.8928740   -0.6600796   -1.5922521 
C     1.8041630   -3.0253166   -2.3095695 
O     3.0853432   -3.3561807   -1.8832204 
O     1.2063858   -3.8024127   -3.3000216 
H     0.2547295   -3.5136763   -3.4774994 
N    -0.0400048   -2.3052332   -0.7692018 
H     0.5951457   -1.3052819   -2.5181805 
H    -0.0560881   -3.3505268   -0.6746328 
H     0.0633333   -1.9377808    0.2047127 
