24
Energy =
C     0.0090996    1.6721654    1.0736404 
C     0.2868319    2.7277453    0.2740956 
C     0.9971175    2.5471159   -0.8629831 
C     0.4490984    0.4313711    0.7430996 
C     1.1727377    0.2433160   -0.3958415 
C     1.4406909    1.3094049   -1.2005033 
O    -0.1667599    3.9979310    0.6157168 
H     0.5108951    4.4751827    1.1998936 
H     2.0076324    1.1781298   -2.1192049 
H     0.2124120   -0.4075952    1.3925262 
H    -0.5731092    1.8298250    1.9749637 
H     1.2022659    3.3997742   -1.5018546 
C     1.6518266   -1.1384301   -0.7812699 
C     0.7685542   -1.7785762   -1.8796342 
H     1.6873287   -1.8086088    0.1077333 
H     2.7028572   -1.0620979   -1.1432446 
C     1.4195624   -3.0350303   -2.4262210 
O     1.5436082   -4.1718044   -1.6330156 
O     1.9767509   -3.0284193   -3.6990984 
H     2.3598433   -3.9449802   -3.8925013 
N    -0.5850424   -2.0589254   -1.3667807 
H     0.6930156   -1.0897901   -2.7532163 
H    -0.5296230   -2.6584926   -0.5086098 
H    -1.0639438   -1.1649519   -1.1071631 
