24
Energy =
C     1.7581202    2.2785471    0.1393849 
C     0.5293767    2.6160649    0.5947455 
C    -0.4457356    1.6814876    0.6674504 
C     2.0151434    1.0037600   -0.2506707 
C     1.0393487    0.0558499   -0.1753991 
C    -0.1964682    0.4048883    0.2798742 
O     0.2694085    3.9236977    0.9928055 
H    -0.0471501    4.4799549    0.2062449 
H    -0.9931211   -0.3329041    0.3290737 
H     3.0046292    0.7494006   -0.6229006 
H     2.5311555    3.0377846    0.0915904 
H    -1.4262503    1.9638493    1.0357938 
C     1.3167290   -1.3605576   -0.6295184 
C     1.0146100   -1.5422351   -2.1281697 
H     0.7120627   -2.0837165   -0.0375700 
H     2.3821966   -1.6124190   -0.4257794 
C     1.5505112   -2.8767329   -2.6226388 
O     2.6840185   -2.9226013   -3.4241195 
O     0.9433208   -4.0638300   -2.2305404 
H     1.4451419   -4.8385693   -2.6469136 
N    -0.4363150   -1.4046215   -2.3535158 
H     1.5528168   -0.7519575   -2.7023685 
H    -0.6105507   -1.3560439   -3.3851234 
H    -0.9239680   -2.2724800   -2.0185448 
