24
Energy =
C     1.0741231    1.9139424    0.9147460 
C     0.1284003    2.6699663    0.3123571 
C    -0.2674351    2.3815438   -0.9477539 
C     1.6237314    0.8597575    0.2598805 
C     1.2301179    0.5588729   -1.0101309 
C     0.2783312    1.3289149   -1.6100523 
O    -0.4323566    3.7503909    0.9843660 
H    -1.2621996    3.4651058    1.4939082 
H    -0.0569957    1.1021818   -2.6181387 
H     2.3741559    0.2555729    0.7655449 
H     1.3846800    2.1592137    1.9250766 
H    -1.0242028    3.0017213   -1.4175553 
C     1.8302843   -0.6321267   -1.7359388 
C     0.8812501   -1.8619572   -1.7581340 
H     2.7907127   -0.9311418   -1.2553151 
H     2.0972509   -0.3409773   -2.7752260 
C     0.4838638   -2.3156173   -0.3483907 
O     1.4416787   -2.2551360    0.6567264 
O    -0.7491027   -2.8682027   -0.0069677 
H    -1.3032744   -2.9735274   -0.8488952 
N    -0.2813303   -1.5703249   -2.5964545 
H     1.4268185   -2.7195265   -2.2082361 
H     0.0334140   -1.4801728   -3.5981155 
H    -0.8909815   -2.4117714   -2.5584598 
