24
Energy =
C    -0.5893490    1.6030041    0.6466300 
C    -0.5003686    2.6640699   -0.1871490 
C     0.3768627    2.6439026   -1.2161634 
C     0.2068838    0.5192682    0.4595322 
C     1.0921330    0.4885991   -0.5765873 
C     1.1742167    1.5628733   -1.4120241 
O    -1.3140737    3.7752462    0.0109182 
H    -0.8658950    4.4405677    0.6307617 
H     1.8757220    1.5663971   -2.2419753 
H     0.1236145   -0.3257066    1.1397196 
H    -1.3068632    1.6287285    1.4596021 
H     0.4323913    3.4984402   -1.8822415 
C     1.9818430   -0.7222556   -0.7906368 
C     1.2557626   -1.9239232   -1.4526639 
H     2.3960703   -1.0432842    0.1926498 
H     2.8647375   -0.4515859   -1.4110922 
C     0.1469396   -2.4814630   -0.5659895 
O     0.4827057   -3.1854129    0.5836137 
O    -1.1943027   -2.2353656   -0.8342443 
H    -1.7579504   -2.6904807   -0.1275759 
N     0.8353615   -1.6197050   -2.8436167 
H     1.9892086   -2.7606762   -1.5050863 
H    -0.1993069   -1.7521363   -2.9616419 
H     1.0108849   -0.6229804   -3.1009202 
