24
Energy =
C    -0.1228238    2.3135768   -0.2061669 
C    -0.0502378    2.0101314    1.1194425 
C     0.6540523    0.9269873    1.5194496 
C     0.5178783    1.5292105   -1.1247629 
C     1.2296843    0.4464430   -0.7129982 
C     1.2884154    0.1439764    0.6113992 
O    -0.6918243    2.7899500    2.0873295 
H    -1.2062700    3.5878169    1.7316006 
H     1.8427528   -0.7266418    0.9543535 
H     0.4594701    1.7351250   -2.2212960 
H    -0.7040500    3.1828727   -0.5090535 
H     0.7024369    0.6899418    2.5774878 
C     1.9176921   -0.4262522   -1.7390933 
C     0.9157260   -1.3672222   -2.4719820 
H     2.7324687   -1.0222397   -1.2664522 
H     2.4567329    0.2251366   -2.4710760 
C     0.9316207   -1.1361323   -3.9946677 
O     1.0735220   -2.2133087   -4.8752657 
O     0.7454978    0.1697074   -4.5056421 
H     0.6267251    0.9242099   -3.8131860 
N     1.2207253   -2.7616225   -2.0934350 
H    -0.1341903   -1.1285870   -2.1814537 
H     0.9752299   -2.9056804   -1.0849886 
H     0.6104631   -3.4228301   -2.6343894 
