24
Energy =
C     0.7771276    2.4902241   -2.0829285 
C    -0.5410696    2.6281527   -1.8133216 
C    -1.1189170    1.8656265   -0.8577710 
C     1.5209030    1.5798327   -1.4047818 
C     0.9443907    0.7980982   -0.4489379 
C    -0.3814412    0.9534777   -0.1743004 
O    -1.3015771    3.5609516   -2.5131693 
H    -1.6770565    3.1477444   -3.3600746 
H    -0.8644376    0.3427788    0.5851245 
H     2.5781299    1.4841545   -1.6337200 
H     1.2294353    3.1160815   -2.8437079 
H    -2.1759581    1.9902285   -0.6484459 
C     1.7668620   -0.2290862    0.3057581 
C     1.5858313   -1.6804452   -0.2226636 
H     1.4920875   -0.1839826    1.3834800 
H     2.8465357    0.0396943    0.2694262 
C     0.1336322   -2.1586060   -0.1379703 
O    -0.6706164   -2.1962020   -1.2709835 
O    -0.4370219   -2.5003234    1.0904803 
H     0.2223419   -2.4251123    1.8488468 
N     2.1318631   -1.8298584   -1.5890461 
H     2.1480390   -2.3563836    0.4627644 
H     2.5557982   -0.9487962   -1.9580159 
H     2.8786806   -2.5632944   -1.6086200 
