24
Energy =
C     0.4036248    1.7133675    0.8778760 
C     0.2242926    2.6831083   -0.0578663 
C     0.5319432    2.4303145   -1.3501590 
C     0.8934572    0.4998579    0.5173840 
C     1.2106878    0.2460488   -0.7834310 
C     1.0199974    1.2183686   -1.7169668 
O    -0.2748451    3.9446743    0.2798900 
H    -0.5046411    4.0507753    1.2622751 
H     1.2474399    1.0297361   -2.7629228 
H     1.0139792   -0.2733331    1.2743021 
H     0.1488752    1.9041300    1.9149877 
H     0.3755078    3.2100714   -2.0878677 
C     1.7314409   -1.1170673   -1.1939359 
C     0.5974313   -2.0959813   -1.5754068 
H     2.3349184   -1.5583045   -0.3678045 
H     2.4309456   -1.0122372   -2.0526051 
C    -0.3308788   -2.3629722   -0.3935625 
O     0.0455205   -3.3216696    0.5403794 
O    -1.4732378   -1.5997107   -0.1407088 
H    -1.6373446   -0.9118409   -0.8626583 
N    -0.1217491   -1.6012669   -2.7584305 
H     1.0580065   -3.0794569   -1.8237684 
H     0.5327755   -1.5913663   -3.5759481 
H    -0.8681107   -2.2931511   -3.0012885 
