24
Energy =
C     0.8227884    2.2557507    0.2966820 
C    -0.2404604    1.9361667    1.0700195 
C    -0.7010008    0.6646358    1.0952655 
C     1.4421285    1.2991568   -0.4409441 
C     0.9931663    0.0128314   -0.4098905 
C    -0.0912036   -0.2964482    0.3556309 
O    -0.8672213    2.9160226    1.8333571 
H    -0.4558226    2.9697992    2.7583169 
H    -0.4792394   -1.3113238    0.3768060 
H     2.2860683    1.5764453   -1.0692312 
H     1.1660489    3.2844182    0.2655678 
H    -1.5666986    0.4272017    1.7045070 
C     1.6651683   -1.0530629   -1.2500174 
C     1.0267539   -1.1779507   -2.6467704 
H     1.6050877   -2.0317271   -0.7256736 
H     2.7512888   -0.8338299   -1.3574808 
C     1.2268211    0.1007399   -3.4583164 
O     0.1665867    0.9837556   -3.6025901 
O     2.4629013    0.4395727   -4.0065904 
H     3.1233816   -0.3174639   -3.9096469 
N     1.6082646   -2.3519391   -3.3211811 
H    -0.0764581   -1.3140886   -2.5412409 
H     1.2622599   -3.2230568   -2.8530469 
H     1.2402021   -2.3980194   -4.3034240 
