24
Energy =
C    -0.1246377    2.2773816   -1.7416783 
C    -0.5587864    2.6974703   -0.5313279 
C    -0.1612853    2.0549167    0.5905804 
C     0.7216065    1.2194923   -1.8330382 
C     1.1383542    0.5744272   -0.7075929 
C     0.6842658    0.9963451    0.5067371 
O    -1.4214148    3.7849702   -0.4414511 
H    -0.9004726    4.6520564   -0.3748618 
H     0.9860731    0.4832026    1.4167786 
H     1.0520427    0.8790425   -2.8105642 
H    -0.4696451    2.7889431   -2.6338963 
H    -0.5311304    2.3890398    1.5543386 
C     2.0777487   -0.6133509   -0.8068684 
C     1.3560516   -1.9094921   -1.2311718 
H     2.5858824   -0.7845039    0.1688747 
H     2.8852329   -0.3859163   -1.5358932 
C     0.2351286   -2.2801198   -0.2589864 
O    -0.9689177   -2.8090182   -0.7147032 
O     0.4482958   -2.1905360    1.1127569 
H    -0.3855760   -2.5081615    1.5904854 
N     0.9023259   -1.7679381   -2.6296325 
H     2.0840786   -2.7500165   -1.1628089 
H     1.7268619   -1.8736952   -3.2657868 
H     0.2537833   -2.5577851   -2.8701896 
