24
Energy =
C     0.0287416    1.6160790    1.1744981 
C     0.1467179    2.6545372    0.3165764 
C     0.7625939    2.4697461   -0.8812460 
C     0.5200321    0.3941814    0.8474127 
C     1.1374374    0.2029221   -0.3512182 
C     1.2561849    1.2498686   -1.2140660 
O    -0.3717871    3.8983173    0.6908356 
H    -0.2506864    4.6264072   -0.0045552 
H     1.7469312    1.1172140   -2.1755466 
H     0.4140687   -0.4262581    1.5520050 
H    -0.4650040    1.7757621    2.1270791 
H     0.8608051    3.2978362   -1.5742909 
C     1.6831408   -1.1574918   -0.7301234 
C     0.7925709   -1.8741987   -1.7758690 
H     1.7998784   -1.8110995    0.1639671 
H     2.7108506   -1.0216340   -1.1395408 
C     1.5445575   -3.0465433   -2.3877276 
O     2.2244656   -2.8816865   -3.5878545 
O     1.6232293   -4.2641536   -1.7229600 
H     2.1836623   -4.9012568   -2.2752194 
N    -0.5206881   -2.2620186   -1.2007874 
H     0.6072216   -1.1857265   -2.6322434 
H    -0.6563519   -3.3029969   -1.2370857 
H    -0.5992204   -2.0125395   -0.1889198 
