24
Energy =
C     1.5926102    2.3728766   -1.6467387 
C     0.3488700    2.9085971   -1.5239707 
C    -0.5977952    2.2461129   -0.8220219 
C     1.8836603    1.1835598   -1.0615938 
C     0.9350238    0.5221010   -0.3433830 
C    -0.3127721    1.0565503   -0.2349284 
O     0.0170659    4.1358622   -2.1070622 
H     0.7674056    4.5498565   -2.6499574 
H    -1.0919795    0.5319285    0.3105725 
H     2.8755164    0.7558928   -1.1869840 
H     2.3548254    2.8897751   -2.2196875 
H    -1.5888494    2.6787168   -0.7448099 
C     1.2545331   -0.8223618    0.2804812 
C     1.0501155   -2.0465952   -0.6784990 
H     0.6238950   -0.9659481    1.1863133 
H     2.2866044   -0.7721838    0.6871016 
C     0.4701289   -1.6788208   -2.0567862 
O     1.3241324   -1.3304230   -3.0980867 
O    -0.9081704   -1.6146041   -2.2731955 
H    -1.4416443   -1.8543623   -1.4516087 
N     2.2716731   -2.8878988   -0.7684091 
H     0.2709826   -2.6931118   -0.2169859 
H     2.6210378   -2.9592168   -1.7559072 
H     3.0793832   -2.5287638   -0.2115455 
