24
Energy =
C    -0.5332847    1.4541717    0.8617339 
C    -0.5154913    2.5407633    0.0558469 
C     0.3219844    2.5824629   -1.0058924 
C     0.2847987    0.4015649    0.6053751 
C     1.1335636    0.4379872   -0.4592791 
C     1.1421371    1.5332325   -1.2693845 
O    -1.3555731    3.6175608    0.3215214 
H    -2.2502994    3.4954151   -0.1396045 
H     1.8050680    1.5782842   -2.1301008 
H     0.2521152   -0.4734028    1.2508094 
H    -1.2072076    1.4367529    1.7113375 
H     0.3304846    3.4620560   -1.6409454 
C     2.0314877   -0.7416834   -0.7607472 
C     1.3252379   -1.7799910   -1.6486066 
H     2.3536978   -1.2373284    0.1835052 
H     2.9637252   -0.3869808   -1.2553096 
C     2.3227653   -2.8062350   -2.1698569 
O     2.2974639   -3.1848671   -3.5063465 
O     3.2477166   -3.3931929   -1.3145122 
H     3.8042754   -4.0552744   -1.8402867 
N     0.2261064   -2.3926080   -0.8701136 
H     0.9233867   -1.2652356   -2.5543668 
H    -0.6895366   -2.1467521   -1.3146880 
H     0.2878929   -3.4402121   -0.8805344 
