24
Energy =
C     0.0342419    1.7649193    0.9857605 
C     0.3223161    2.7812958    0.1403989 
C     1.0438360    2.5463082   -0.9795129 
C     0.4611422    0.5062443    0.7100927 
C     1.1871452    0.2617606   -0.4165780 
C     1.4743897    1.2904043   -1.2622854 
O    -0.1172211    4.0701015    0.4261521 
H    -1.0395837    4.2291021    0.0359249 
H     2.0518545    1.1154854   -2.1670671 
H     0.2176210   -0.3005021    1.3967467 
H    -0.5370537    1.9699444    1.8845582 
H     1.2755366    3.3718175   -1.6443803 
C     1.6555759   -1.1397190   -0.7389839 
C     0.7732655   -1.8180434   -1.8149240 
H     1.6796428   -1.7713369    0.1782006 
H     2.7098433   -1.0883664   -1.0961792 
C     1.4193238   -3.0985311   -2.3095311 
O     1.5362446   -4.2031639   -1.4711647 
O     1.9770482   -3.1461677   -3.5812984 
H     2.3577314   -4.0709800   -3.7364353 
N    -0.5837611   -2.0707007   -1.2967019 
H     0.7048382   -1.1635186   -2.7148989 
H    -0.5344777   -2.6438643   -0.4201699 
H    -1.0553195   -1.1654572   -1.0655546 
