24
Energy =
C     0.8002485    2.6041470   -0.4350868 
C    -0.2241488    2.5441821    0.4572490 
C    -0.6006174    1.3478393    0.9627611 
C     1.4435420    1.4703964   -0.8126714 
C     1.0705402    0.2662455   -0.2974963 
C     0.0380935    0.2103200    0.5879028 
O    -0.9061576    3.6932569    0.8705134 
H    -0.5761448    4.5472663    0.4341561 
H    -0.2847661   -0.7430031    0.9989402 
H     2.2537238    1.5342949   -1.5358717 
H     1.1048738    3.5580418   -0.8517988 
H    -1.4233106    1.3143099    1.6686293 
C     1.7688712   -1.0033652   -0.7335399 
C     1.0414629   -1.6858417   -1.9056997 
H     1.8229764   -1.7121553    0.1223315 
H     2.8226096   -0.7902583   -1.0237363 
C     1.0797756   -0.8380078   -3.1699714 
O    -0.0878558   -0.5813353   -3.8774014 
O     2.2866501   -0.3371656   -3.6456996 
H     2.1074344    0.1719919   -4.5021869 
N     1.6406237   -3.0151490   -2.1122533 
H    -0.0331452   -1.8132921   -1.6357615 
H     1.0592905   -3.5414194   -2.8079336 
H     2.5899750   -2.9065790   -2.5466467 
