24
Energy =
C     0.2217440    2.3352381    0.0281499 
C    -0.6575432    2.5457076   -0.9875565 
C    -0.6486376    1.7226001   -2.0604157 
C     1.1051577    1.3070353   -0.0365965 
C     1.1212124    0.4835217   -1.1202676 
C     0.2321769    0.6920228   -2.1299804 
O    -1.5805983    3.5959967   -0.9539710 
H    -1.5278510    4.1636505   -0.1151118 
H     0.2192727    0.0362426   -2.9968317 
H     1.7926997    1.1410328    0.7891839 
H     0.2174383    2.9849935    0.8964904 
H    -1.3592391    1.8995156   -2.8604706 
C     2.0901035   -0.6762900   -1.1844396 
C     1.4965016   -1.9467198   -0.5455297 
H     3.0423428   -0.4150047   -0.6691541 
H     2.3651104   -0.8759200   -2.2446870 
C     2.3381931   -3.1667826   -0.8812397 
O     1.7674250   -4.2459365   -1.5440824 
O     3.6834169   -3.2110163   -0.5361277 
H     4.0686409   -4.0979113   -0.8356658 
N     1.3690093   -1.7434387    0.9096453 
H     0.4889488   -2.1378201   -0.9857128 
H     0.8690788   -2.5649125    1.3266645 
H     2.3251227   -1.7357608    1.3419393 
