24
Energy =
C     0.1273716    2.1581375   -0.2011916 
C     1.1360674    2.6265295    0.5688951 
C     2.3283058    1.9679027    0.5905460 
C     0.3084009    1.0384138   -0.9416611 
C     1.4846920    0.3650542   -0.9181240 
C     2.5041547    0.8440345   -0.1545837 
O     0.9238241    3.7834915    1.3248974 
H     1.7255496    4.0765033    1.8721922 
H     3.4646179    0.3353294   -0.1359771 
H    -0.5064515    0.5469496   -1.6412190 
H    -0.8194838    2.6868279   -0.2202373 
H     3.1430396    2.3420443    1.2004021 
C     1.6666037   -0.8678820   -1.7976399 
C     0.4010829   -1.7739469   -1.8855503 
H     2.5151895   -1.4689483   -1.4036109 
H     1.9598657   -0.5449643   -2.8216066 
C    -0.7413232   -1.1154907   -2.7061223 
O    -1.2763549    0.1010589   -2.2890160 
O    -1.2729576   -1.6865839   -3.8565054 
H    -0.7048133   -2.4527256   -4.1799425 
N     0.7985517   -3.0972629   -2.4083964 
H    -0.0153495   -1.8985223   -0.8560919 
H     1.5552599   -3.5059002   -1.8082599 
H    -0.0074801   -3.7607400   -2.3006233 
