24
Energy =
C     0.9115033    2.6105996   -0.9984509 
C     0.4722493    2.7293080    0.2827734 
C     0.4533624    1.6418432    1.0867873 
C     1.3330212    1.4078666   -1.4659282 
C     1.3224468    0.3141286   -0.6541117 
C     0.8716030    0.4363297    0.6241416 
O     0.0342883    3.9536188    0.7970026 
H     0.0633586    4.7184478    0.1313796 
H     0.8410283   -0.4275828    1.2836700 
H     1.6690755    1.3197408   -2.4983788 
H     0.9213690    3.4760240   -1.6523901 
H     0.0948076    1.7494363    2.1049831 
C     1.7673106   -1.0336109   -1.1799159 
C     0.6039261   -1.8155739   -1.8192453 
H     2.1975654   -1.6406899   -0.3519919 
H     2.5875455   -0.9113249   -1.9232641 
C     0.0502653   -1.1230531   -3.0522729 
O     0.9008392   -0.6072310   -4.0245584 
O    -1.3208310   -1.0123765   -3.2232315 
H    -1.5038467   -0.5536953   -4.1069660 
N     1.0705274   -3.1807118   -2.1166504 
H    -0.2461176   -1.8633538   -1.0968331 
H     0.2635055   -3.7389047   -2.4874976 
H     1.7721225   -3.1404604   -2.8957871 
