24
Energy =
C     0.1352451    2.1233685    0.6177856 
C     0.3128148    2.9223245   -0.4596171 
C     0.9529023    2.4504049   -1.5539852 
C     0.5915342    0.8450990    0.6020115 
C     1.2359414    0.3625797   -0.4971460 
C     1.4121344    1.1732486   -1.5776230 
O    -0.1564564    4.2320602   -0.4398493 
H    -1.1124725    4.2754122   -0.7752554 
H     1.9228030    0.8067320   -2.4649217 
H     0.4365011    0.2142849    1.4736564 
H    -0.3716378    2.5180554    1.4915878 
H     1.0963822    3.1042025   -2.4078710 
C     1.7362781   -1.0642884   -0.5286365 
C     0.8038311   -1.9967493   -1.3400194 
H     1.8564342   -1.4683189    0.5027790 
H     2.7579947   -1.0750673   -0.9716167 
C     1.4580876   -3.3489423   -1.5677625 
O     1.5795915   -3.8606617   -2.8550934 
O     1.9798623   -4.0675567   -0.4969292 
H     2.3459462   -4.9451316   -0.8425986 
N    -0.4983236   -2.1468798   -0.6658767 
H     0.6400536   -1.5706167   -2.3568658 
H    -0.3579152   -2.5007415    0.3109681 
H    -0.9855483   -1.2222632   -0.6102338 
