24
Energy =
C     0.0655170    1.3193521    1.3070123 
C     0.4680828    2.5055960    0.7775395 
C     1.2343769    2.5142326   -0.3367296 
C     0.4328134    0.1511721    0.7215895 
C     1.2116956    0.1593081   -0.3948878 
C     1.6055336    1.3492174   -0.9255060 
O     0.1081050    3.7270019    1.3565185 
H    -0.4719420    3.6371648    2.1833666 
H     2.2137461    1.3767435   -1.8273425 
H     0.0989018   -0.7895956    1.1520019 
H    -0.5527264    1.3027896    2.1978638 
H     1.5432108    3.4667583   -0.7531895 
C     1.6011975   -1.1407839   -1.0628135 
C     0.5273630   -1.6181225   -2.0596538 
H     1.7577135   -1.9273266   -0.2908694 
H     2.5784218   -1.0314381   -1.5865659 
C     0.3649142   -0.6653649   -3.2344139 
O     1.4644738   -0.2760308   -3.9925978 
O    -0.8971846   -0.2012987   -3.5777609 
H    -0.8121093    0.4118590   -4.3783502 
N     0.8718796   -2.9845209   -2.4924361 
H    -0.4633822   -1.6331433   -1.5458816 
H     0.1161047   -3.3480565   -3.1223145 
H     1.7455918   -2.9534500   -3.0732062 
