24
Energy =
C    -0.5025698    1.7978214    0.3732095 
C    -0.1944962    2.7497149   -0.5473682 
C     0.7641668    2.5030452   -1.4688656 
C     0.1515366    0.6084340    0.3688092 
C     1.1230907    0.3619851   -0.5524488 
C     1.4204745    1.3147848   -1.4787027 
O    -0.8479841    3.9857816   -0.5709373 
H    -1.5560256    4.0929029    0.1474120 
H     2.1824345    1.1346489   -2.2329001 
H    -0.1144772   -0.1538605    1.0976832 
H    -1.2761671    1.9831479    1.1106224 
H     0.9959885    3.2698066   -2.2002435 
C     1.8384507   -0.9720893   -0.5692142 
C     1.0042544   -2.0562134   -1.2847924 
H     2.0609806   -1.2984435    0.4716592 
H     2.8299474   -0.8634504   -1.0656471 
C     1.8469794   -3.2846083   -1.6359360 
O     2.9965145   -3.5705679   -0.9083200 
O     1.4700468   -4.1500412   -2.6615841 
H     0.5844355   -3.8892510   -3.0692644 
N    -0.1558302   -2.4006962   -0.4419650 
H     0.6484348   -1.6371337   -2.2549955 
H    -0.8152688   -3.0041276   -0.9889440 
H     0.1607344   -2.9769262    0.3766102 
