24
Energy =
C     0.1255917    1.6840060    1.1739530 
C    -0.3367455    2.5618489    0.2442736 
C    -0.0547210    2.3610661   -1.0628813 
C     0.8657624    0.6123973    0.7921335 
C     1.1497548    0.4083283   -0.5245310 
C     0.6848557    1.2913916   -1.4507971 
O    -1.1009242    3.6764879    0.6043022 
H    -1.2741347    3.7554732    1.6004850 
H     0.9013248    1.1483817   -2.5067642 
H     1.2271468   -0.0787393    1.5490271 
H    -0.0957607    1.8372871    2.2246435 
H    -0.4296992    3.0687606   -1.7943800 
C     1.9695356   -0.7870853   -0.9624310 
C     1.1022869   -1.8800307   -1.6347234 
H     2.5253868   -1.2363882   -0.1081112 
H     2.7483970   -0.4345074   -1.6768227 
C     1.9943355   -2.8945730   -2.3331180 
O     2.1051671   -2.8892750   -3.7180376 
O     2.7530612   -3.7925545   -1.5919274 
H     3.2865829   -4.3718339   -2.2282027 
N     0.1669789   -2.5074336   -0.6674371 
H     0.5006194   -1.4189447   -2.4515717 
H     0.3565929   -3.5354433   -0.5701169 
H     0.2658486   -2.1153769    0.2961555 
