24
Energy =
C     0.1940016    2.0292751    0.7595895 
C    -0.1791800    2.7455852   -0.3258698 
C     0.1088967    2.2924510   -1.5673460 
C     0.8638467    0.8582907    0.6074558 
C     1.1603930    0.3968703   -0.6397815 
C     0.7784831    1.1228928   -1.7277750 
O    -0.8666247    3.9446647   -0.1657450 
H    -0.2188421    4.7200954   -0.0799650 
H     1.0042255    0.7722835   -2.7318398 
H     1.1572164    0.2954391    1.4899118 
H    -0.0528186    2.4005444    1.7483122 
H    -0.2036048    2.8712788   -2.4301199 
C     1.8986408   -0.9118760   -0.8212813 
C     0.9682503   -2.0449376   -1.3259800 
H     2.3894131   -1.2351294    0.1254451 
H     2.7271456   -0.7516467   -1.5482588 
C     1.7762442   -3.2445386   -1.7859623 
O     1.5078446   -3.8327857   -3.0172384 
O     2.8064969   -3.7534783   -1.0032413 
H     3.1901758   -4.5661872   -1.4664240 
N    -0.0048418   -2.4492177   -0.2887641 
H     0.4310557   -1.6924949   -2.2384753 
H     0.0474726   -1.8537367    0.5691068 
H    -0.9777765   -2.3505512   -0.6632814 
