24
Energy =
C     1.2645751    2.0117024    0.7432149 
C     1.0994758    2.9091876   -0.2559140 
C     1.0871921    2.4939805   -1.5433952 
C     1.4317692    0.6952418    0.4573373 
C     1.4386787    0.2717716   -0.8374076 
C     1.2559980    1.1797678   -1.8373844 
O     0.9333418    4.2583029    0.0415411 
H     1.8301579    4.7282944    0.0937795 
H     1.2304760    0.8585717   -2.8761029 
H     1.5549907   -0.0158668    1.2700670 
H     1.2532511    2.3567214    1.7714401 
H     0.9320456    3.2197056   -2.3348294 
C     1.6045867   -1.1989181   -1.1566074 
C     0.2571032   -1.9483555   -1.1528300 
H     2.2881197   -1.6615941   -0.4105725 
H     2.1049747   -1.3311197   -2.1422707 
C    -0.6773034   -1.4186609   -2.2434530 
O    -1.6895608   -0.5314764   -1.9021786 
O    -0.4981149   -1.7505708   -3.5846906 
H     0.2201602   -2.4552184   -3.6717856 
N     0.5303789   -3.3891900   -1.3121564 
H    -0.2640640   -1.7676778   -0.1812847 
H     1.0634002   -3.7372825   -0.4786447 
H    -0.3778259   -3.9154430   -1.2983387 
