24
Energy =
C     0.8899608    2.5760352   -0.7568198 
C    -0.3674015    2.6305403   -0.2596348 
C    -0.9356661    1.5217518    0.2671578 
C     1.5825307    1.4084762   -0.7350599 
C     1.0174092    0.2883172   -0.2044662 
C    -0.2495523    0.3509743    0.2935725 
O    -1.0741519    3.8285716   -0.2837850 
H    -1.5926612    3.9223231   -1.1501843 
H    -0.7220924   -0.5346350    0.7121983 
H     2.5909919    1.3787203   -1.1413753 
H     1.3354063    3.4757015   -1.1678626 
H    -1.9420630    1.5801072    0.6684936 
C     1.7833093   -1.0161780   -0.1933334 
C     1.6914230   -1.7553504   -1.5436790 
H     1.4087280   -1.6888035    0.6114121 
H     2.8492140   -0.8111932    0.0569735 
C     2.7136877   -2.8786058   -1.6005916 
O     3.4239317   -3.1097261   -2.7692534 
O     2.9138152   -3.7131792   -0.5095802 
H     2.1912369   -4.4185823   -0.5168083 
N     0.3211695   -2.2676255   -1.7279282 
H     1.9576998   -1.0572295   -2.3729116 
H    -0.3181032   -1.4622103   -1.9257885 
H     0.2913634   -2.8572388   -2.5957213 
