24
Energy =
C     0.3440316    2.5450298   -1.5036479 
C    -0.1332080    2.7357632   -0.2453334 
C     0.0404625    1.7732142    0.6880513 
C     0.9895600    1.3950645   -1.8213603 
C     1.1623939    0.4203022   -0.8840392 
C     0.6881671    0.6221535    0.3771522 
O    -0.8001932    3.9109992    0.1154723 
H    -0.9041309    4.5776321   -0.6417117 
H     0.8166039   -0.1374233    1.1444365 
H     1.3684464    1.2646654   -2.8313352 
H     0.2121606    3.3120633   -2.2587572 
H    -0.3478223    1.9357461    1.6877006 
C     1.8842508   -0.8690566   -1.2340530 
C     0.9333511   -2.0583928   -1.5318393 
H     2.5587101   -1.1459353   -0.3918388 
H     2.5501243   -0.7131175   -2.1116356 
C     0.0846412   -2.4319485   -0.3230107 
O    -1.2003948   -1.9261063   -0.1542730 
O     0.6303225   -3.2314476    0.6723738 
H    -0.0672863   -3.3793454    1.3910246 
N     0.1581687   -1.8524023   -2.7809526 
H     1.5735345   -2.9570910   -1.6859649 
H    -0.8739936   -1.9268548   -2.6067536 
H     0.3048170   -0.9030222   -3.1910713 
