24
Energy =
C    -0.5569635    1.2508516    1.0129210 
C    -0.5098244    2.4453332    0.3645511 
C     0.3433113    2.6097501   -0.6716460 
C     0.2497064    0.2309651    0.6238488 
C     1.1151806    0.3985142   -0.4137080 
C     1.1529961    1.5936177   -1.0643362 
O    -1.3255452    3.5171937    0.7411532 
H    -1.9443272    3.3116494    1.5177438 
H     1.8251577    1.7422351   -1.9068336 
H     0.1969131   -0.7198519    1.1480593 
H    -1.2411973    1.1082332    1.8422605 
H     0.3658028    3.5650302   -1.1848353 
C     1.9990969   -0.7459260   -0.8603441 
C     1.2588179   -1.7045810   -1.8251914 
H     2.3429834   -1.3088322    0.0352794 
H     2.9169150   -0.3582573   -1.3608466 
C     0.8590587   -1.0152063   -3.1224646 
O    -0.4032900   -1.2337456   -3.6652579 
O     1.7435219   -0.1662687   -3.7838327 
H     1.3109359    0.1431640   -4.6440836 
N     2.0851413   -2.8981911   -2.1086196 
H     0.3016075   -2.0172310   -1.3444547 
H     2.9949009   -2.9003522   -1.5900272 
H     1.5674521   -3.7642973   -1.8277708 
