24
Energy =
C     0.1057399    2.4992107   -0.9412627 
C     0.4068666    2.7592275    0.3514975 
C     1.1570563    1.8718151    1.0582383 
C     0.5471376    1.3617408   -1.5351621 
C     1.3025704    0.4732403   -0.8334007 
C     1.6015437    0.7329127    0.4691058 
O    -0.0681969    3.9415283    0.9286287 
H     0.2035659    4.0656604    1.8978550 
H     2.1941117    0.0282268    1.0483596 
H     0.2917500    1.1697465   -2.5742477 
H    -0.4945007    3.2135047   -1.4942100 
H     1.4013665    2.0696911    2.0963805 
C     1.7804656   -0.8028840   -1.4892250 
C     0.6871144   -1.8954544   -1.5081896 
H     2.6804769   -1.2039773   -0.9700304 
H     2.1153237   -0.5762925   -2.5274924 
C     1.0514155   -3.0426113   -2.4458674 
O     0.1236742   -4.0464675   -2.7007526 
O     2.2819362   -3.0813697   -3.0952093 
H     2.3292815   -3.9257425   -3.6514040 
N     0.4666129   -2.3748502   -0.1313907 
H    -0.2579045   -1.4722365   -1.9211533 
H    -0.0218684   -1.6284108    0.4167275 
H    -0.1969107   -3.1868125   -0.1495972 
