24
Energy =
C     0.3326381    2.5055796   -0.8034060 
C     0.3852561    2.6026394    0.5519423 
C     0.8319605    1.5543185    1.2803248 
C     0.7271757    1.3634805   -1.4211801 
C     1.1819217    0.3092556   -0.6889514 
C     1.2281037    0.4098005    0.6678690 
O    -0.0147041    3.7642486    1.2202505 
H    -0.3351361    4.5049431    0.6057851 
H     1.5757921   -0.4255565    1.2708534 
H     0.6757471    1.2983121   -2.5055936 
H    -0.0265267    3.3400204   -1.3960661 
H     0.8654490    1.6439513    2.3606923 
C     1.6067283   -0.9687877   -1.3788297 
C     0.3986613   -1.8512898   -1.7580954 
H     2.2987206   -1.5521088   -0.7301131 
H     2.1911420   -0.7029543   -2.2903935 
C     0.8181034   -2.9108773   -2.7765746 
O     0.6701749   -2.6391440   -4.1299525 
O     1.4216568   -4.1057183   -2.3921652 
H     1.4492842   -4.1749081   -1.3853125 
N    -0.1682314   -2.4480398   -0.5325842 
H    -0.3732832   -1.2313508   -2.2764218 
H    -0.5907417   -1.6902348    0.0565871 
H    -0.9752008   -3.0659698   -0.7939778 
