24
Energy =
C     0.2428531    2.2172584    0.0686171 
C    -0.8307524    1.6752581    0.7027326 
C    -0.9382939    0.3315211    0.8055156 
C     1.2028796    1.4137254   -0.4550004 
C     1.0992064    0.0602113   -0.3472197 
C     0.0174519   -0.4770883    0.2816724 
O    -1.8369070    2.4725511    1.2561814 
H    -1.6938703    3.4684689    1.1230493 
H    -0.0886541   -1.5553523    0.3670784 
H     2.0506230    1.8634546   -0.9687294 
H     0.3351418    3.2942063   -0.0258669 
H    -1.8031018   -0.0854326    1.3102447 
C     2.1550963   -0.8408884   -0.9531865 
C     1.7604992   -1.3208916   -2.3727395 
H     2.3089728   -1.7205522   -0.2893078 
H     3.1363232   -0.3134163   -1.0003333 
C     1.6427481   -0.1507556   -3.3586030 
O     2.6236424    0.8355618   -3.3758973 
O     0.5909465   -0.0649639   -4.2718610 
H    -0.0065700   -0.8784695   -4.2522952 
N     2.6955527   -2.3700548   -2.8462881 
H     0.7487508   -1.7786206   -2.3093020 
H     3.2131802   -2.0579008   -3.7045012 
H     3.4382726   -2.5991927   -2.1440098 
