24
Energy =
C     1.9283334    2.3624936   -0.7352593 
C     1.0725180    2.7486828    0.2482787 
C     0.3224939    1.8208006    0.8842176 
C     2.0319970    1.0522787   -1.0733441 
C     1.2835427    0.1157486   -0.4278381 
C     0.4213742    0.5093818    0.5494447 
O     0.9434517    4.0888374    0.6251276 
H     1.5248016    4.7248694    0.0894638 
H    -0.1940432   -0.2225168    1.0650857 
H     2.7130338    0.7596214   -1.8698226 
H     2.5292212    3.1000737   -1.2566161 
H    -0.3602475    2.1450177    1.6620588 
C     1.3803025   -1.3439998   -0.8182082 
C     0.2682877   -1.7518154   -1.8152926 
H     1.3114584   -1.9739229    0.0958247 
H     2.3751696   -1.5588145   -1.2733684 
C     0.3557767   -0.9690654   -3.1157455 
O    -0.7652602   -0.3056171   -3.6036987 
O     1.5495051   -0.8876904   -3.8245628 
H     1.3805793   -0.3603506   -4.6700449 
N     0.3168637   -3.2045833   -2.0843075 
H    -0.7204221   -1.4862921   -1.3720903 
H     1.0609554   -3.6973073   -1.5368821 
H    -0.5992248   -3.6451288   -1.8331984 
