24
Energy =
C     1.0804406    2.5079189   -0.4840375 
C    -0.0449730    2.6812611    0.2463288 
C    -0.6756906    1.6113954    0.7812730 
C     1.5871029    1.2625815   -0.6716879 
C     0.9639573    0.1790671   -0.1286286 
C    -0.1759284    0.3628669    0.5969778 
O    -0.5584112    3.9595372    0.4417285 
H    -0.1564384    4.3841182    1.2698078 
H    -0.6986829   -0.4870114    1.0283834 
H     2.4854935    1.1370293   -1.2700536 
H     1.5650053    3.3730695   -0.9231056 
H    -1.5868547    1.7615272    1.3506800 
C     1.5243982   -1.2144147   -0.3479599 
C     1.0471713   -1.8508126   -1.6724745 
H     1.2478701   -1.8757805    0.5037837 
H     2.6350317   -1.1684819   -0.3485705 
C    -0.4612703   -2.0947612   -1.6886165 
O    -1.1219186   -2.4738380   -0.5235125 
O    -1.1698881   -2.0843073   -2.8847482 
H    -2.1411503   -2.2937731   -2.6932774 
N     1.5153498   -1.0177696   -2.7982490 
H     1.4941089   -2.8682532   -1.7524343 
H     2.5310113   -1.2039956   -2.9653795 
H     1.0155943   -1.2974814   -3.6786842 
