24
Energy =
C     0.5258065    2.6013200   -1.1641799 
C     0.5297999    2.7546376    0.1867169 
C     0.9550738    1.7401758    0.9735951 
C     0.9510065    1.4380188   -1.7197453 
C     1.3877413    0.4188130   -0.9281137 
C     1.3793991    0.5739782    0.4240346 
O     0.1019542    3.9408465    0.7910761 
H    -0.2176138    4.6482807    0.1381953 
H     1.7093316   -0.2323621    1.0745802 
H     0.9288479    1.3211481   -2.8025347 
H     0.1775671    3.4068860   -1.8017403 
H     0.9469962    1.8735937    2.0501359 
C     1.8396173   -0.8898692   -1.5414433 
C     0.6810051   -1.8884903   -1.7000199 
H     2.6299698   -1.3504355   -0.9080974 
H     2.3125500   -0.7211722   -2.5358111 
C    -0.3833744   -1.3717662   -2.6576123 
O    -0.0321405   -0.8037733   -3.8783703 
O    -1.7246462   -1.4731396   -2.3193945 
H    -2.2840324   -1.1083225   -3.0800220 
N     1.2602262   -3.1771496   -2.1327947 
H     0.1624804   -2.0068829   -0.7176856 
H     1.1454802   -3.8833829   -1.3685552 
H     0.7484179   -3.5628892   -2.9640938 
