24
Energy =
C     1.1053619    2.6194176   -1.0764908 
C     0.9068220    2.7194124    0.2647935 
C     0.9653016    1.6084312    1.0339585 
C     1.3631207    1.4120319   -1.6394473 
C     1.4282581    0.2935978   -0.8648686 
C     1.2206503    0.3976431    0.4761222 
O     0.6383446    3.9474110    0.8769748 
H     0.6080410    4.7317121    0.2341405 
H     1.2581272   -0.4844772    1.1101716 
H     1.5098589    1.3465526   -2.7160351 
H     1.0552599    3.5035619   -1.7030546 
H     0.8020284    1.7026165    2.1022046 
C     1.6833912   -1.0589937   -1.4935102 
C     0.3645474   -1.8047251   -1.8125972 
H     2.3035704   -1.6735739   -0.8036849 
H     2.2779584   -0.9445785   -2.4304199 
C    -0.4958282   -1.0278754   -2.7973423 
O    -0.0186483   -0.7169694   -4.0653149 
O    -1.7343812   -0.5360365   -2.4022796 
H    -1.5964518    0.2936997   -1.8439106 
N     0.6483327   -3.1615773   -2.3282803 
H    -0.2458961   -1.8745491   -0.8808979 
H     1.6698716   -3.3928290   -2.3418609 
H     0.1731987   -3.8812993   -1.7340446 
