24
Energy =
C     1.1679233    2.2642162   -2.1989750 
C    -0.0599268    2.6672556   -1.8002848 
C    -0.7010657    1.9899902   -0.8108669 
C     1.7633011    1.1924256   -1.6166439 
C     1.1308014    0.5164275   -0.6176897 
C    -0.1098140    0.9180561   -0.2243615 
O    -0.6397285    3.7765286   -2.4240839 
H    -1.5635072    4.0097448   -2.0765970 
H    -0.6400692    0.3735462    0.5522551 
H     2.7471411    0.8791947   -1.9565268 
H     1.6659818    2.8095567   -2.9934217 
H    -1.6899513    2.3002215   -0.4908336 
C     1.7866772   -0.6925967    0.0209991 
C     1.4464331   -1.9940475   -0.7408151 
H     1.4667995   -0.7849643    1.0831722 
H     2.8845249   -0.5218015    0.0199086 
C     2.1199623   -3.2688929   -0.1996056 
O     1.6453754   -4.4962584   -0.6438275 
O     3.2065890   -3.2759884    0.6789270 
H     3.5528357   -2.3663926    0.9234187 
N    -0.0229777   -2.1371163   -0.7856884 
H     1.8313705   -1.8872667   -1.7818597 
H    -0.2732418   -2.8614170   -1.5029543 
H    -0.3718689   -2.5110013    0.1298805 
