24
Energy =
C     1.2979800    2.7592494   -0.9147517 
C     0.4982892    2.8857063    0.1683502 
C     0.0696068    1.7720830    0.8208569 
C     1.6697897    1.5305536   -1.3550169 
C     1.2365958    0.4122336   -0.7115721 
C     0.4401749    0.5407634    0.3857926 
O     0.1353338    4.1687121    0.5902489 
H    -0.4625772    4.1808109    1.4093600 
H     0.0947078   -0.3390008    0.9233206 
H     2.3277948    1.4450840   -2.2166003 
H     1.6408613    3.6553509   -1.4208048 
H    -0.5679849    1.8641395    1.6936229 
C     1.6677969   -0.9579398   -1.1894208 
C     3.0780085   -1.3214097   -0.6769664 
H     1.6535017   -0.9957143   -2.3020344 
H     0.9307501   -1.7239774   -0.8559633 
C     3.3729303   -2.8153325   -0.8301858 
O     2.6966315   -3.5634389   -1.7870323 
O     4.3345417   -3.4461907   -0.0425610 
H     4.8143047   -2.7952994    0.5613430 
N     4.0710394   -0.4844222   -1.3756071 
H     3.1159483   -1.1091729    0.4170922 
H     5.0068701   -0.6008248   -0.9186400 
H     4.1821578   -0.8187662   -2.3646241 
