23
UFF-Energy = 0.0997879
C    -5.8335807    1.9496975   -0.4671920 
C    -5.7242106    0.5975360   -0.4562416 
C    -4.5961952    0.0082380   -0.0150300 
C    -4.8009556    2.7533238   -0.0295953 
C    -3.6594160    2.1170440    0.4124283 
C    -3.5662255    0.7635056    0.4130829 
H    -2.7731060    2.6615402    0.7177219 
H    -2.6569375    0.2729503    0.7432735 
H    -6.5470160   -0.0235563   -0.7951037 
H    -6.7890429    2.3525058   -0.7833837 
O    -4.4928030   -1.3795766   -0.0070684 
H    -4.7986409   -1.7528309    0.8842647 
C    -4.9046931    4.1378889   -0.0357817 
C    -4.1408929    4.9224733    0.8024954 
C    -4.2484533    6.2732053    0.7929577 
C    -5.1104557    6.8815320   -0.0472839 
C    -5.8714234    6.1444577   -0.8820145 
C    -5.7762378    4.7927397   -0.8802762 
H    -6.3755903    4.2671713   -1.6142568 
H    -6.5554909    6.6395067   -1.5664231 
H    -3.4694450    4.4984003    1.5396772 
H    -3.6458526    6.8704979    1.4723000 
H    -5.1915951    7.9652436   -0.0519697 
