23
UFF-Energy = 0.0886661
C    -5.8752390    1.9129299    0.1984678 
C    -5.7602411    0.5696105    0.0515565 
C    -4.6167901    0.0227390   -0.4029379 
C    -4.8289517    2.7571659   -0.1078844 
C    -3.6695043    2.1702613   -0.5694810 
C    -3.5716307    0.8249768   -0.7143096 
H    -2.8127862    2.7523542   -0.8895602 
H    -2.6533051    0.3903360   -1.0925262 
H    -6.5868660   -0.0843652    0.3093723 
H    -6.8070521    2.2716619    0.6204884 
O    -4.5421944   -1.3676806   -0.5408693 
H    -3.6508418   -1.7040400   -0.8867282 
C    -4.9379016    4.1336673    0.0412380 
C    -6.1634144    4.7662689    0.0305945 
C    -6.2625326    6.1098901    0.1747777 
C    -5.1539580    6.8609111    0.3364447 
C    -3.9394184    6.2746220    0.3534510 
C    -3.8257616    4.9323632    0.2069545 
H    -2.8253137    4.5236015    0.2851178 
H    -3.0494564    6.8820047    0.4964037 
H    -7.0893790    4.2327380   -0.1490190 
H    -7.2386045    6.5874529    0.1496147 
H    -5.2393971    7.9380149    0.4531390 
