23
UFF-Energy = 0.0881771
C    -5.6890671    1.9827195    0.6879140 
C    -5.5267153    0.6406261    0.8008609 
C    -4.4410812    0.0331598    0.2665349 
C    -4.7627249    2.7621525    0.0275514 
C    -3.6698669    2.1131401   -0.5068105 
C    -3.5202354    0.7708407   -0.3821566 
H    -2.8601005    2.6439188   -0.9942386 
H    -2.6492229    0.2727094   -0.7946410 
H    -6.2780737    0.0500504    1.3135402 
H    -6.6080694    2.3921088    1.0919071 
O    -4.2473672   -1.3485957    0.3698467 
H    -4.9826535   -1.8324483    0.8727212 
C    -4.9230234    4.1362197   -0.0937431 
C    -4.3164312    4.8469624   -1.1080482 
C    -4.4784275    6.1874573   -1.2217429 
C    -5.2406363    6.8587458   -0.3343124 
C    -5.8470498    6.1950395    0.6711125 
C    -5.6962149    4.8541062    0.7943966 
H    -6.1663104    4.3946412    1.6558270 
H    -6.4502946    6.7416689    1.3913117 
H    -3.7362306    4.3649416   -1.8860291 
H    -4.0013849    6.7243806   -2.0375692 
H    -5.3660284    7.9340587   -0.4292815 
