23
UFF-Energy = 0.0873993
C    -5.6460082    1.9748977   -0.7878640 
C    -5.4760951    0.6317759   -0.8754443 
C    -4.4297698    0.0307813   -0.2613215 
C    -4.7674521    2.7616486   -0.0733460 
C    -3.7139601    2.1192981    0.5417354 
C    -3.5558871    0.7758614    0.4415868 
H    -2.9397892    2.6562649    1.0778514 
H    -2.7152789    0.2826002    0.9180923 
H    -6.1901611    0.0350687   -1.4323656 
H    -6.5350991    2.3798474   -1.2579476 
O    -4.2292129   -1.3517735   -0.3366992 
H    -4.9279921   -1.8414219   -0.8839696 
C    -4.9358813    4.1365664    0.0224176 
C    -4.4036577    4.8575365    1.0705362 
C    -4.5732627    6.1990306    1.1589954 
C    -5.2696609    6.8609955    0.2124389 
C    -5.8023275    6.1869794   -0.8273220 
C    -5.6431506    4.8449471   -0.9260725 
H    -6.0496632    4.3762364   -1.8144423 
H    -6.3520827    6.7262239   -1.5943760 
H    -3.8813129    4.3830601    1.8928764 
H    -4.1561807    6.7444623    2.0015928 
H    -5.4014441    7.9371170    0.2874424 
