24
Energy =
C     2.4116946    2.4549219   -0.0380948 
C     1.2474613    3.1411095   -0.0264523 
C     0.0860672    2.4982051   -0.3175412 
C     2.4273684    1.1321392   -0.3411877 
C     1.2669633    0.4782661   -0.6277278 
C     0.0948892    1.1743825   -0.6179393 
O     1.2733353    4.5039623    0.2842648 
H     0.3618092    4.9482750    0.2853352 
H    -0.8444006    0.6781786   -0.8494281 
H     3.3745322    0.5988580   -0.3395782 
H     3.3311736    2.9785972    0.2021246 
H    -0.8515732    3.0432218   -0.3110028 
C     1.2756861   -1.0020951   -0.9718506 
C     1.5074229   -1.9388629    0.2443776 
H     2.0624689   -1.1915517   -1.7367863 
H     0.3163755   -1.2917433   -1.4555195 
C     2.9302730   -1.8406101    0.7832745 
O     3.9369938   -2.6081623    0.2111293 
O     3.2626106   -0.9196167    1.7717982 
H     4.2377296   -1.0347888    2.0204337 
N     0.4564667   -1.7835250    1.2808012 
H     1.4403870   -2.9839573   -0.1346130 
H     0.8863670   -1.5519457    2.2102951 
H    -0.1914415   -0.9907035    1.0759293 
