24
Energy =
C     2.7478338    2.2108445    0.2960388 
C     1.7881226    2.8197767    1.0297537 
C     0.5356243    2.3099573    1.0632034 
C     2.4542937    1.0946443   -0.4191135 
C     1.1912309    0.5815105   -0.4003426 
C     0.2350837    1.1926037    0.3535833 
O     2.0926373    3.9624744    1.7617144 
H     1.9540205    4.7962037    1.2013528 
H    -0.7713025    0.7845297    0.4016233 
H     3.2403013    0.6022268   -0.9906169 
H     3.7533298    2.6187382    0.2982761 
H    -0.2203753    2.7973378    1.6701658 
C     0.8663714   -0.6816657   -1.1731792 
C     1.1498325   -1.9611022   -0.3574557 
H     1.4569872   -0.7099471   -2.1173199 
H    -0.2006558   -0.6741099   -1.4863254 
C     2.6315833   -2.0612959    0.0007299 
O     3.5478877   -2.2886284   -1.0141602 
O     3.1183618   -1.8149925    1.2796038 
H     2.3371581   -1.7086719    1.9085637 
N     0.2688879   -2.0055035    0.8212542 
H     0.9356670   -2.8437148   -1.0034265 
H    -0.7276912   -2.0801306    0.4999059 
H     0.4637290   -2.8944011    1.3356010 
