24
Energy =
C     1.1606492    2.6438872   -0.3323057 
C    -0.1739460    2.6657514   -0.5577856 
C    -0.8390998    1.5102361   -0.8038599 
C     1.8240558    1.4629641   -0.3639312 
C     1.1769994    0.3030298   -0.6272481 
C    -0.1681708    0.3275217   -0.8346548 
O    -0.8651151    3.8727204   -0.5278289 
H    -0.8738050    4.3042365   -1.4454399 
H    -0.7157334   -0.5932830   -1.0185379 
H     2.9833655    1.3234089   -0.2048819 
H     1.6868717    3.5688376   -0.1244756 
H    -1.9115799    1.5395711   -0.9658162 
C     1.9525814   -1.0061783   -0.5923507 
C     3.3557483   -0.9402411   -1.2637882 
H     1.3639863   -1.8006256   -1.1045283 
H     2.0659927   -1.3257160    0.4672722 
C     4.3826454   -0.0721611   -0.5031848 
O     4.0666031    1.2088412   -0.0515867 
O     5.6839436   -0.5150688   -0.3370409 
H     6.2072365    0.1962654    0.1582749 
N     3.8266673   -2.3241085   -1.4557346 
H     3.2471791   -0.4565662   -2.2623578 
H     4.7616915   -2.3017863   -1.9327193 
H     4.0150171   -2.7488615   -0.5158872 
