24
Energy =
C     1.0976396    3.0156174   -0.3833820 
C    -0.0467828    2.8571035   -1.0871189 
C    -0.5011017    1.6145850   -1.3689377 
C     1.7981970    1.9311563    0.0324396 
C     1.3525660    0.6755975   -0.2551592 
C     0.1936847    0.5246808   -0.9553550 
O    -0.7620942    3.9724515   -1.5134775 
H    -0.4233941    4.2945592   -2.4136078 
H    -0.1837183   -0.4683494   -1.1917490 
H     2.7148366    2.0758925    0.5978571 
H     1.4431118    4.0164391   -0.1514896 
H    -1.4250181    1.4995367   -1.9261711 
C     2.1301558   -0.5418368    0.2033146 
C     3.0680823   -1.1327730   -0.8814982 
H     1.4110466   -1.3290478    0.5286271 
H     2.7243553   -0.2971146    1.1124470 
C     2.3316123   -1.5669230   -2.1532927 
O     1.8166037   -2.8560354   -2.2186338 
O     2.0895126   -0.7027248   -3.2218727 
H     2.4843665    0.2067646   -3.0509812 
N     4.2069221   -0.2328530   -1.1461358 
H     3.4777185   -2.0882339   -0.4762476 
H     3.8828710    0.7480209   -1.3067205 
H     4.8245907   -0.2036733   -0.3004553 
