24
Energy =
C     0.2839896    2.1660642    0.4657637 
C    -0.7386930    2.4584906   -0.3814244 
C    -0.8790427    1.7547120   -1.5275889 
C     1.1603368    1.1757417    0.1605972 
C     1.0256494    0.4731403   -0.9972800 
C    -0.0058276    0.7625672   -1.8373664 
O    -1.6593475    3.4726728   -0.0986478 
H    -1.4889909    3.9501355    0.7798365 
H    -0.1393274    0.2020161   -2.7592034 
H     1.9652673    0.9419052    0.8531215 
H     0.4007826    2.7195167    1.3911046 
H    -1.7026125    1.9956076   -2.1909832 
C     1.9877668   -0.6460048   -1.3280591 
C     1.4973989   -1.9953899   -0.7671234 
H     2.9996343   -0.4179597   -0.9230922 
H     2.1122434   -0.7159500   -2.4329319 
C     2.2798969   -3.1489866   -1.3709208 
O     3.5587093   -3.4561886   -0.9210125 
O     1.7345655   -3.8741778   -2.4205382 
H     2.3963200   -4.5868500   -2.7026565 
N     1.5738677   -1.9688014    0.7067398 
H     0.4397322   -2.1588732   -1.0837712 
H     1.2034860   -2.8724876    1.0878489 
H     2.5800143   -1.9264704    1.0002864 
