24
Energy =
C     2.2440028    2.7514959   -0.0964313 
C     1.0571551    3.2542975   -0.5082269 
C     0.0596262    2.4185740   -0.8779657 
C     2.4402861    1.4087621   -0.0593900 
C     1.4399422    0.5610138   -0.4288286 
C     0.2480118    1.0747998   -0.8431550 
O     0.8600658    4.6310143   -0.5455695 
H     1.1443094    5.0102880   -1.4419565 
H    -0.5593617    0.4139683   -1.1506169 
H     3.3999028    1.0185986    0.2708624 
H     3.0312711    3.4335795    0.2059236 
H    -0.8898637    2.8338170   -1.1993973 
C     1.6622365   -0.9350256   -0.4033378 
C     2.3874926   -1.4357955   -1.6699321 
H     0.6933081   -1.4758415   -0.3050755 
H     2.2504458   -1.2013816    0.5039998 
C     2.8656116   -2.8724121   -1.5064156 
O     2.3552275   -3.6979054   -0.5091533 
O     3.8256181   -3.3750784   -2.3743856 
H     4.0098030   -4.3401841   -2.1300379 
N     1.4870032   -1.2967912   -2.8297720 
H     3.3143496   -0.8364383   -1.8303363 
H     1.4406569   -0.2881011   -3.1046000 
H     1.9111131   -1.7921700   -3.6530543 
