24
Energy =
C     2.3652019    2.6357122    0.1861404 
C     1.2230205    3.2557253   -0.1901488 
C     0.1787394    2.5293219   -0.6506964 
C     2.4700004    1.2854372    0.0959564 
C     1.4233132    0.5475683   -0.3679412 
C     0.2755959    1.1784800   -0.7435006 
O     1.1192693    4.6401489   -0.0970078 
H     1.4399026    5.0818311   -0.9516099 
H    -0.5709530    0.6093691   -1.1192677 
H     3.3945560    0.8005179    0.3997756 
H     3.1907871    3.2298377    0.5625005 
H    -0.7346045    3.0380644   -0.9408045 
C     1.5455060   -0.9556495   -0.4807028 
C     2.3704847   -1.3887484   -1.7171820 
H     0.5414080   -1.4373421   -0.5159956 
H     2.0293989   -1.3432616    0.4445585 
C     2.6590680   -2.8800301   -1.6758562 
O     3.9710028   -3.3415716   -1.6791356 
O     1.6143674   -3.7950948   -1.5899481 
H     2.0001124   -4.7305467   -1.5901559 
N     1.6766966   -1.0222104   -2.9642803 
H     3.3647528   -0.8861415   -1.6948440 
H     0.7160979   -1.4418361   -2.9755864 
H     1.5795897    0.0176028   -3.0296279 
