24
Energy =
C     1.7512703    2.9028490   -0.1039824 
C     1.0783492    3.2784392   -1.2156679 
C     0.5042551    2.3441189   -2.0075407 
C     1.8403716    1.5884875    0.2280798 
C     1.2525174    0.6427376   -0.5568998 
C     0.5909033    1.0286932   -1.6835252 
O     0.9870207    4.6252532   -1.5505134 
H     0.1780540    5.0513028   -1.1120422 
H     0.1305423    0.2890030   -2.3342387 
H     2.3988248    1.2926773    1.1159258 
H     2.2252716    3.6646942    0.5065023 
H    -0.0181739    2.6578734   -2.9054146 
C     1.3639657   -0.8263151   -0.2066438 
C     2.6024790   -1.4835697   -0.8454578 
H     0.4468334   -1.3574054   -0.5430236 
H     1.4095957   -0.9765488    0.8965916 
C     3.9017419   -1.0009723   -0.2114257 
O     5.0853059   -1.0744750   -0.9338609 
O     3.9384722   -0.5085793    1.0914242 
H     4.9089067   -0.3580228    1.3441979 
N     2.4583102   -2.9453385   -0.7275578 
H     2.6656043   -1.1977844   -1.9222414 
H     1.7462052   -3.2773200   -1.4191258 
H     3.3614184   -3.4037379   -1.0034221 
