24
Energy =
C     0.6753886    2.1188489    1.0692391 
C    -0.6133317    2.1095978    0.6288613 
C    -0.9503181    1.3423608   -0.4373702 
C     1.6088083    1.3710693    0.4272789 
C     1.2699063    0.6027958   -0.6235316 
C    -0.0146124    0.5791265   -1.0611244 
O    -1.6100813    2.8741524    1.2499187 
H    -1.2973654    3.3583713    2.0844878 
H    -0.3008774   -0.0614074   -1.8893588 
H     4.5520621    1.0991525    1.1812664 
H     0.9587250    2.6910545    1.9427890 
H    -1.9810494    1.3309438   -0.7690397 
C     2.3620976   -0.2602032   -1.2005398 
C     2.9384649   -1.2673829   -0.1547209 
H     3.1732072    0.3771643   -1.6120149 
H     1.9715992   -0.8307665   -2.0761774 
C     2.9916885   -0.7995603    1.3205024 
O     3.1227453   -1.7453540    2.3312102 
O     2.9937272    0.5621160    1.6863550 
H     3.3710572    1.5760400    0.4253308 
N     2.1674272   -2.5173469   -0.3213492 
H     4.0148283   -1.4560990   -0.3838296 
H     2.6632759   -3.1506937   -0.9890492 
H     2.0850117   -3.0424410    0.5826191 
