24
Energy =
C     0.8531060    1.6621718    1.0591165 
C     0.1968590    2.6515828    0.4118082 
C     0.1243220    2.6333066   -0.9453728 
C     1.4374116    0.6541379    0.3630074 
C     1.3709626    0.6319837   -0.9967268 
C     0.7110536    1.6299311   -1.6464464 
O    -0.3915662    3.6735071    1.1641983 
H    -0.8902385    4.3611282    0.6105527 
H     0.6362546    1.6196643   -2.7312434 
H     1.9562645   -0.1358080    0.9001322 
H     0.9010759    1.6856342    2.1423267 
H    -0.4071967    3.4173636   -1.4722076 
C     2.0221038   -0.4995266   -1.7664523 
C     1.1789822   -1.8076430   -1.7271806 
H     3.0252501   -0.6733995   -1.3199564 
H     2.2004092   -0.2188784   -2.8296942 
C    -0.0594628   -1.7590346   -2.6282104 
O    -0.5003204   -0.5677740   -3.1803917 
O    -0.8447634   -2.8811889   -2.8139472 
H    -0.1868699   -3.6494116   -2.7246981 
N     2.0394691   -2.9877419   -1.9829182 
H     0.7479341   -1.9318864   -0.7106447 
H     1.7159446   -3.5292754   -2.8088469 
H     3.0433648   -2.7380350   -2.1795508 
