24
Energy =
C     1.3778295    2.2862819    0.7080843 
C     0.1867501    2.6815564    0.2029512 
C    -0.4922785    1.8721856   -0.6416711 
C     1.8922374    1.0751752    0.3745439 
C     1.2134030    0.2529375   -0.4736864 
C     0.0151725    0.6593973   -0.9797961 
O    -0.3361803    3.9244636    0.5453101 
H    -0.9017966    3.8567171    1.3843091 
H    -0.5445674    0.0203817   -1.6582360 
H     2.8492437    0.7703354    0.7898900 
H     1.9150617    2.9501492    1.3767065 
H    -1.4424573    2.2049505   -1.0463077 
C     1.7928376   -1.0932535   -0.8523447 
C     2.9818567   -0.9629005   -1.8385584 
H     1.0156229   -1.7552335   -1.3008624 
H     2.1239710   -1.6067482    0.0785822 
C     3.7216671   -2.2843448   -1.9628300 
O     3.0831052   -3.4089129   -2.4701579 
O     5.0197886   -2.4054390   -1.4804307 
H     4.9962647   -2.4691185   -0.4739823 
N     2.5315792   -0.4962560   -3.1678841 
H     3.7302623   -0.2501194   -1.4186024 
H     1.5171571   -0.2429905   -3.1896093 
H     3.0634146    0.3628794   -3.4428810 
