24
Energy =
C     1.6602175    2.9171790   -0.4297367 
C     0.4468893    3.1412319   -0.9830746 
C    -0.3566609    2.0881986   -1.2892614 
C     2.0792375    1.6507407   -0.1808625 
C     1.2803932    0.5919542   -0.4883369 
C     0.0574507    0.8190259   -1.0428921 
O     0.0512707    4.4604295   -1.2257016 
H    -0.8718799    4.5503240   -1.6355318 
H    -0.5979272   -0.0122485   -1.2896662 
H     3.0565302    1.4910013    0.2679187 
H     2.2915665    3.7653924   -0.1871815 
H    -1.3320504    2.2605379   -1.7304018 
C     1.7536920   -0.8203113   -0.2160661 
C     2.8514988   -1.2717793   -1.2133568 
H     0.9045183   -1.5403010   -0.2412240 
H     2.1520685   -0.8584969    0.8248667 
C     3.5229414   -2.5553810   -0.7326113 
O     4.7407201   -2.4716975   -0.0677383 
O     2.9177048   -3.8043275   -0.8722056 
H     2.0577467   -3.7322683   -1.3957556 
N     2.3081245   -1.4337322   -2.5808127 
H     3.6665300   -0.5088898   -1.2170575 
H     1.2969902   -1.1719931   -2.6450462 
H     2.8168117   -0.7955550   -3.2380996 
