24
Energy =
C     2.2188789    2.4571432    0.0813952 
C     0.9871466    3.0042893   -0.0261739 
C    -0.0591029    2.2435647   -0.4205277 
C     2.4078788    1.1424732   -0.1976238 
C     1.3569624    0.3632825   -0.5811019 
C     0.1209017    0.9269838   -0.6980761 
O     0.7977946    4.3526607    0.2589544 
H     0.5788731    4.4818474    1.2408998 
H    -0.7313159    0.3319310   -1.0158796 
H     3.4041034    0.7172646   -0.1026180 
H     3.0493826    3.0815515    0.3921435 
H    -1.0395689    2.6985950   -0.5147836 
C     1.5625579   -1.1096702   -0.8873479 
C     1.6876548   -2.0031766    0.3754133 
H     2.4801278   -1.2261489   -1.5082252 
H     0.7284327   -1.4954873   -1.5144278 
C     2.9404197   -1.6855027    1.1806186 
O     2.9176965   -0.7687083    2.2265696 
O     4.1526129   -2.2481168    0.8079224 
H     4.8665477   -1.9417038    1.4571284 
N     0.4382832   -2.0147511    1.1765060 
H     1.8654364   -3.0455217    0.0233908 
H     0.6195887   -1.7043821    2.1623857 
H    -0.2786818   -1.3519742    0.8055018 
