24
Energy =
C     1.9214249    2.2716580   -0.8350098 
C     0.9692465    2.8854064   -0.0954923 
C     0.0866835    2.1490033    0.6170492 
C     1.9882141    0.9164939   -0.8715627 
C     1.0990490    0.1662776   -0.1618766 
C     0.1474585    0.7931476    0.5858659 
O     0.9028714    4.2745831   -0.0598159 
H     0.3129109    4.6253459   -0.8066889 
H    -0.5687671    0.2165135    1.1664546 
H     2.7554797    0.4349297   -1.4741314 
H     2.6293824    2.8750386   -1.3929681 
H    -0.6656915    2.6542554    1.2138278 
C     1.1686545   -1.3477894   -0.2139615 
C     0.3782525   -1.9569616   -1.4005424 
H     0.8057668   -1.7818671    0.7458093 
H     2.2327295   -1.6642234   -0.3000203 
C    -1.1381002   -1.7781543   -1.2813514 
O    -1.7164912   -1.6907911   -0.0194302 
O    -1.9897453   -1.8029201   -2.3864379 
H    -1.4987238   -2.0240246   -3.2403105 
N     0.9306493   -1.4437212   -2.6619808 
H     0.5365941   -3.0579125   -1.3787728 
H     0.6744547   -2.1061423   -3.4269896 
H     0.5279097   -0.5009063   -2.8886011 
