24
Energy =
C     1.1754040    2.6105008    0.1726990 
C    -0.0049744    2.7280572   -0.4775013 
C    -0.5336038    1.6611686   -1.1191947 
C     1.8339784    1.4234502    0.1806115 
C     1.3079625    0.3431230   -0.4606857 
C     0.1203474    0.4716918   -1.1175565 
O    -0.6771606    3.9458503   -0.4832323 
H    -0.3646523    4.5190944   -1.2597931 
H    -0.3074175   -0.3701149   -1.6564242 
H     2.7932892    1.3440031    0.6849212 
H     1.5878923    3.4758829    0.6798209 
H    -1.4792912    1.7693976   -1.6398962 
C     2.0577971   -0.9752001   -0.4809191 
C     3.2191425   -0.9761691   -1.4955583 
H     1.3611150   -1.8099069   -0.7166149 
H     2.4555392   -1.1890916    0.5352289 
C     2.7338480   -0.5970699   -2.9027127 
O     2.9510420    0.6822411   -3.4025417 
O     2.0261596   -1.5087625   -3.6885146 
H     1.9292936   -2.4046535   -3.2351707 
N     4.2929200   -0.0984002   -0.9921679 
H     3.6150638   -2.0150975   -1.5704181 
H     4.8286202   -0.6038033   -0.2477614 
H     4.9789589    0.0974406   -1.7620543 
