24
Energy =
C    -0.2531533    0.8614660    0.7971751 
C    -0.7733307    1.8272461    0.0054630 
C    -0.3977696    1.9145265   -1.2911464 
C     0.6535984   -0.0158959    0.2966721 
C     1.0423291    0.0695070   -1.0063978 
C     0.5080627    1.0404216   -1.7994389 
O    -1.7023004    2.7250798    0.5217477 
H    -1.2380183    3.5363217    0.9147946 
H     0.7944161    1.1216282   -2.8447299 
H     1.0599220   -0.7898856    0.9434611 
H    -0.5745221    0.7946465    1.8309738 
H    -0.8331586    2.6852427   -1.9186724 
C     2.0575439   -0.9071473   -1.5600083 
C     3.4932658   -0.5981635   -1.0650613 
H     2.0371201   -0.9223790   -2.6734492 
H     1.7641281   -1.9346173   -1.2409710 
C     4.4291218   -1.7616536   -1.3735591 
O     4.6718218   -2.7071867   -0.3854700 
O     4.9810179   -1.9570257   -2.6392357 
H     4.7775760   -1.1802264   -3.2500738 
N     4.0046574    0.6679558   -1.6371232 
H     3.4839648   -0.5372356    0.0498878 
H     3.3078682    1.1410214   -2.2580651 
H     4.2137330    1.3427971   -0.8634865 
