24
Energy =
C     1.2992484    1.9149337    0.6894307 
C     0.4786772    2.7379696   -0.0161718 
C     0.0440294    2.3601251   -1.2389332 
C     1.6846574    0.7234177    0.1660887 
C     1.2570536    0.3455649   -1.0710551 
C     0.4271137    1.1700010   -1.7672822 
O     0.0665776    3.9744904    0.4897008 
H     0.4134095    4.1735040    1.4219307 
H     0.0538385    0.8695612   -2.7422370 
H     2.3281012    0.0695516    0.7507523 
H     1.6450959    2.2045624    1.6759286 
H    -0.6210481    3.0215534   -1.7834895 
C     1.6772735   -0.9914415   -1.6535779 
C     0.5583194   -2.0506770   -1.5750894 
H     2.5743150   -1.3773570   -1.1178695 
H     1.9859338   -0.8545277   -2.7122995 
C     0.0838965   -2.2559376   -0.1387060 
O    -1.2688252   -2.3016108    0.1813980 
O     1.0168256   -2.4820709    0.8657964 
H     0.5197351   -2.6204609    1.7366628 
N    -0.5215629   -1.6776552   -2.5117794 
H     0.9849347   -3.0366337   -1.8712469 
H    -0.2355146   -1.9420224   -3.4834052 
H    -1.3799293   -2.2450903   -2.3024053 
