24
Energy =
C     2.2743567    2.6293382    0.1669090 
C     1.1587497    3.2143824   -0.3271886 
C     0.1764561    2.4541909   -0.8631995 
C     2.4149933    1.2799088    0.1204729 
C     1.4291753    0.5077397   -0.4160845 
C     0.3093364    1.1042647   -0.9127077 
O     1.0186332    4.5976683   -0.2783655 
H     1.4131452    5.0283744   -1.1072065 
H    -0.4841993    0.5051869   -1.3539426 
H     3.3177690    0.8237596    0.5190175 
H     3.0491260    3.2510559    0.6024462 
H    -0.7163526    2.9347184   -1.2496274 
C     1.5905508   -0.9950065   -0.4835180 
C     2.4013821   -1.4368394   -1.7194273 
H     0.5957458   -1.4961954   -0.5072842 
H     2.0861491   -1.3526858    0.4473387 
C     2.7804738   -2.9131611   -1.6382646 
O     2.2030508   -3.7546126   -0.6959180 
O     3.7203356   -3.4342554   -2.5178214 
H     4.6447232   -3.1664375   -2.2148281 
N     1.6174347   -1.1491162   -2.9349557 
H     3.3641707   -0.8761984   -1.7466311 
H     1.6987326   -0.1303088   -3.1601354 
H     2.0388659   -1.6573672   -3.7522802 
