24
Energy =
C     1.4933081    2.5107831   -0.8575484 
C     0.7512019    2.7347968    0.2595367 
C     0.2851046    1.6858857    0.9739621 
C     1.7691129    1.2412599   -1.2496925 
C     1.3089252    0.1839506   -0.5254598 
C     0.5564528    0.4141051    0.5856332 
O     0.4525098    4.0291146    0.6957631 
H     0.8160524    4.7604216    0.0936178 
H     0.1654600   -0.4169187    1.1659728 
H     2.3515081    1.0771979   -2.1543170 
H     1.8637673    3.3453883   -1.4432804 
H    -0.3122064    1.8810255    1.8579500 
C     1.5946258   -1.2329586   -0.9761733 
C     0.4475013   -1.8013068   -1.8431191 
H     1.7533684   -1.8792591   -0.0856518 
H     2.5452704   -1.2664452   -1.5570729 
C     0.2659957   -1.0032629   -3.1231923 
O    -0.9133632   -0.3041339   -3.3502101 
O     1.2936983   -0.9251569   -4.0563110 
H     0.9735726   -0.3669547   -4.8372242 
N     0.7012329   -3.2235399   -2.1348802 
H    -0.5201359   -1.7133672   -1.2966553 
H     1.5558974   -3.3084710   -2.7396668 
H     0.8747744   -3.7566064   -1.2515791 
