24
Energy =
C     2.4362829    2.1117155    0.8874342 
C     1.2644599    2.7354121    1.1822315 
C     0.1056167    2.2509685    0.6810048 
C     2.4438061    1.0114547    0.0924505 
C     1.2783958    0.5272696   -0.4189097 
C     0.1071730    1.1521891   -0.1146797 
O     1.2233763    3.8729278    1.9953234 
H     2.1262370    4.1721217    2.3456936 
H    -0.8369151    0.7742370   -0.5006475 
H     3.3876655    0.5214723   -0.1319845 
H     3.3678979    2.4932040    1.2890692 
H    -0.8265714    2.7493409    0.9263793 
C     1.2875667   -0.7108793   -1.2915318 
C     1.3337142   -2.0125970   -0.4513949 
H     2.1717002   -0.6672258   -1.9650526 
H     0.3911806   -0.7299354   -1.9539225 
C     0.0933179   -2.1901114    0.4138824 
O    -1.1608264   -1.7914016   -0.0343206 
O     0.1926698   -2.8275603    1.6425583 
H     0.2526219   -3.8209284    1.4749295 
N     1.5196404   -3.1916318   -1.3242540 
H     2.1860709   -1.9357256    0.2641460 
H     1.7172011   -2.9310506   -2.3194009 
H     2.3380820   -3.7541971   -0.9919950 
