24
Energy =
C     1.4238358    1.8510358    0.7386447 
C     0.5580122    2.6874319    0.1213887 
C     0.0389607    2.3566926   -1.0825377 
C     1.7709240    0.6756769    0.1547637 
C     1.2551099    0.3357592   -1.0603194 
C     0.3818952    1.1832070   -1.6729055 
O     0.2031623    3.8904825    0.7223236 
H    -0.6140319    3.7649752    1.3102680 
H    -0.0584314    0.9131105   -2.6287623 
H     2.4531513    0.0061985    0.6731511 
H     1.8310527    2.1290639    1.7047069 
H    -0.6569531    3.0358050   -1.5635783 
C     1.6203475   -0.9883176   -1.7050360 
C     0.4859746   -2.0276487   -1.6052024 
H     2.5334288   -1.4094684   -1.2264424 
H     1.8794656   -0.8215727   -2.7728429 
C     0.0416866   -2.2226398   -0.1603539 
O    -1.1739286   -1.7289576    0.3011364 
O     0.8794468   -2.8850717    0.7263145 
H     0.4262333   -2.9162952    1.6308295 
N    -0.6101173   -1.6364689   -2.5149114 
H     0.8898825   -3.0203890   -1.9127709 
H    -0.3787560   -1.9533257   -3.4855049 
H    -1.4897805   -2.1417237   -2.2442561 
