13
Energy =
C    -5.2247761    2.1226984   -0.1952505 
C    -3.9248990    1.3243149   -0.0697619 
H    -5.1740978    2.8350855   -1.0468412 
H    -5.4056136    2.6944768    0.7432853 
H    -6.0845101    1.4380901   -0.3548547 
C    -2.7185022    2.2622626    0.0652396 
N    -4.0638383    0.4216583    1.0820464 
H    -3.7758954    0.7204507   -0.9948104 
H    -4.7268759   -0.3519881    0.8400232 
H    -3.1420760   -0.0340720    1.2886911 
O    -2.2823728    2.6636076    1.3223661 
O    -2.0729682    2.7742408   -1.0615466 
H    -2.4931945    2.4530036   -1.9206560 
