13
Energy =
C    -5.3578490    1.9939857    0.1525005 
C    -3.9521036    1.4319541   -0.0876037 
H    -5.6206423    2.7389141   -0.6298026 
H    -5.3957373    2.4979280    1.1439073 
H    -6.1110159    1.1787863    0.1389406 
C    -2.9166759    2.5451117   -0.1847333 
N    -3.6382982    0.4948135    1.0014256 
H    -3.9327843    0.9018460   -1.0702677 
H    -4.2854004   -0.3271954    0.9448278 
H    -2.6753887    0.1061454    0.8495114 
O    -1.8881576    2.4522762   -1.1111563 
O    -2.9446254    3.6236634    0.6888927 
H    -2.4966315    3.3405100    1.5480489 
