13
Energy =
C    -5.3110539    2.1436158   -0.0042670 
C    -3.9910873    1.3584939   -0.1098942 
H    -5.3583711    2.7001150    0.9589015 
H    -6.1824274    1.4574449   -0.0650728 
H    -5.3891383    2.8828803   -0.8316904 
C    -2.7706397    2.2695963   -0.0924515 
N    -3.9305858    0.3595746    0.9681538 
H    -3.9520256    0.8391835   -1.0975602 
H    -3.9853141    0.8378835    1.9009138 
H    -4.7521398   -0.2872818    0.9018274 
O    -2.6904662    3.3301698    0.8019893 
O    -1.6964315    2.0081644   -0.9304784 
H    -1.1325393    1.2880749   -0.5022990 
