13
Energy =
C    -5.1235239    1.7429416   -0.3932782 
C    -3.6673373    1.4805371    0.0063085 
H    -5.7049940    2.0609984    0.5011279 
H    -5.5884464    0.8239281   -0.8064281 
H    -5.1803897    2.5495957   -1.1559130 
C    -2.9978682    2.7462417    0.5231454 
N    -3.6549556    0.4105551    1.0152344 
H    -3.0846504    1.1717528   -0.8957037 
H    -3.9671644   -0.4868657    0.5738022 
H    -2.6667022    0.2436494    1.3258920 
O    -1.6895748    3.0324470    0.1589097 
O    -3.6562886    3.5910096    1.4069305 
H    -3.5367745    3.2250362    2.3404077 
