13
Energy =
C    -5.3389901    2.1052785    0.4234878 
C    -4.0620519    1.4607434   -0.1271894 
H    -5.2137681    2.3235006    1.5087625 
H    -6.2028353    1.4156760    0.3105865 
H    -5.5707445    3.0527255   -0.1090483 
C    -2.8691994    2.4225262   -0.0393766 
N    -3.8367998    0.2143719    0.6202355 
H    -4.2024846    1.2270406   -1.2087483 
H    -4.5535145   -0.4961064    0.3404752 
H    -2.9030894   -0.1909768    0.3668993 
O    -1.9265648    2.2838208    0.9727824 
O    -2.7157142    3.4618304   -0.9580242 
H    -3.4785835    3.4988722   -1.6170801 
