13
Energy =
C    -5.1883731    2.2166186   -0.1421616 
C    -3.9441888    1.3210443   -0.0007625 
H    -5.1038132    2.8586668   -1.0466346 
H    -5.2886573    2.8773490    0.7478740 
H    -6.1039710    1.5945551   -0.2389341 
C    -2.6695957    2.1534673    0.0405423 
N    -4.0916440    0.4162060    1.1639857 
H    -3.8398814    0.6977382   -0.9213391 
H    -3.3274638    0.5740807    1.8662793 
H    -4.9847208    0.5780872    1.6866844 
O    -2.3400199    2.8926429    1.1711851 
O    -1.8468794    2.2160994   -1.0749996 
H    -1.0620616    2.8191734   -0.8627831 
