13
Energy =
C    -5.1784947    2.3001736    0.0183510 
C    -3.9930085    1.3371490   -0.0875119 
H    -5.1114754    2.8910448    0.9585699 
H    -6.1300909    1.7267747    0.0309122 
H    -5.1902889    3.0006032   -0.8443801 
C    -2.6650609    2.0787118   -0.0886048 
N    -4.0971130    0.3625675    1.0098341 
H    -4.0456401    0.8042492   -1.0677143 
H    -3.3481083   -0.3614314    0.8935603 
H    -3.8947000    0.8426784    1.9214992 
O    -2.2593868    2.8067314    1.0241242 
O    -1.8516703    2.0435405   -1.2116303 
H    -1.0218122    2.5927244   -1.0256943 
