13
Energy =
C    -5.2073185    2.3245088   -0.0824482 
C    -3.9749053    1.3905693   -0.0759300 
H    -4.9455147    3.3671942    0.2059975 
H    -5.9896330    1.9795144    0.6284399 
H    -5.6573229    2.3611638   -1.0972468 
C    -2.6757215    2.1398661    0.2262446 
N    -4.2266427    0.2971042    0.8785600 
H    -3.8278863    0.9692269   -1.0990515 
H    -5.0210411   -0.2874691    0.5253132 
H    -3.3945646   -0.3424081    0.8999321 
O    -2.4132362    3.3561547   -0.3908071 
O    -1.7066706    1.5873449    1.0527445 
H    -1.9291825    1.8384330    2.0045350 
