13
Energy =
C    -5.2714617    2.3457478    0.6337830 
C    -4.1383432    1.5851427   -0.1090907 
H    -5.7233302    1.7722878    1.4680217 
H    -6.0882521    2.5972524   -0.0760742 
H    -4.9031843    3.3017361    1.0706947 
C    -2.8374005    2.3802758   -0.1192071 
N    -3.9710336    0.2034311    0.4063297 
H    -4.4112575    1.5110632   -1.1891038 
H    -2.9931430    0.0448290    0.7544483 
H    -4.5898270   -0.0178179    1.2187697 
O    -2.0481660    2.4623327    1.0220143 
O    -2.4588520    3.0789602   -1.2563419 
H    -1.5809289    3.5472181   -1.0697935 
