13
Energy =
C    -5.3248500    2.2161136    0.1476425 
C    -4.0294916    1.4200753   -0.1367857 
H    -5.9330603    1.7314708    0.9425771 
H    -5.9489707    2.2846877   -0.7685113 
H    -5.1203334    3.2521321    0.4975919 
C    -2.7554845    2.2740856   -0.0150709 
N    -3.9880203    0.2561765    0.7615124 
H    -4.0740222    1.0627695   -1.1920567 
H    -4.7561669   -0.4073707    0.5014187 
H    -3.0918488   -0.2693742    0.6207892 
O    -2.6801794    3.2980585    0.9234351 
O    -1.6360310    2.0161672   -0.8086766 
H    -1.7725708    1.2203711   -1.4131703 
