13
Energy =
C    -5.1026726    2.4562416    0.0151574 
C    -4.0233921    1.3796291   -0.1298237 
H    -6.1095571    1.9974543   -0.0849706 
H    -4.9840923    3.2368700   -0.7671124 
H    -5.0322830    2.9393593    1.0146919 
C    -2.6260095    1.9692237   -0.0194581 
N    -4.2788622    0.3353038    0.8748178 
H    -4.0892542    0.9372743   -1.1531825 
H    -3.6043657   -0.4529858    0.7258545 
H    -4.0736661    0.7147058    1.8320038 
O    -2.1897844    2.5397430    1.1708524 
O    -1.7811739    1.9611966   -1.1195912 
H    -0.9049768    2.3952112   -0.8571308 
