13
Energy =
C    -5.2035842    2.3396487   -0.1559091 
C    -4.0123305    1.3755103   -0.1010185 
H    -5.3435200    2.8669811    0.8109580 
H    -6.1342141    1.7691420   -0.3705168 
H    -5.0605808    3.0953043   -0.9596619 
C    -2.6738806    2.0904588    0.1064134 
N    -4.2902074    0.3542197    0.9215153 
H    -3.9293986    0.8743349   -1.0969179 
H    -3.5302488   -0.3690432    0.9062756 
H    -4.2815538    0.7771262    1.8799480 
O    -1.6817478    1.9524979   -0.8548148 
O    -2.4126912    2.8712998    1.2321263 
H    -3.2049023    2.9153064    1.8522276 
