13
Energy =
C    -5.2878217    2.2773743    0.5357058 
C    -4.1001471    1.5834088   -0.1541680 
H    -6.2223996    1.7015487    0.3649434 
H    -5.4276514    3.3033903    0.1278320 
H    -5.1032559    2.3576933    1.6296511 
C    -2.8327055    2.4205991   -0.0328209 
N    -3.9454449    0.1988506    0.3523300 
H    -4.3008202    1.5343468   -1.2508397 
H    -3.0053122    0.0608815    0.7991143 
H    -4.6422239   -0.0333240    1.0988115 
O    -2.0748480    2.4035648    1.1327323 
O    -2.4618658    3.2648960   -1.0692773 
H    -1.6101237    3.7438888   -0.8045631 
