13
Energy =
C    -5.2299609    2.1274280   -0.1386202 
C    -3.9282616    1.3242888   -0.0804139 
H    -6.0953022    1.4493493   -0.2957971 
H    -5.2039068    2.8690409   -0.9660299 
H    -5.3812771    2.6662310    0.8243527 
C    -2.7164984    2.2561339    0.0493015 
N    -4.0335501    0.3831053    1.0437783 
H    -3.8088445    0.7521034   -1.0295864 
H    -4.7055785   -0.3810074    0.7962885 
H    -3.1069022   -0.0805874    1.2061113 
O    -2.2427470    2.6159404    1.3053880 
O    -2.1036043    2.8040659   -1.0788018 
H    -2.5496862    2.5114771   -1.9350998 
