13
Energy =
C    -5.2424403    2.0191118   -0.6420481 
C    -3.9661851    1.3792486   -0.0783520 
H    -5.9362279    1.2418400   -1.0252026 
H    -4.9973889    2.7216403   -1.4679603 
H    -5.7582728    2.5924580    0.1606761 
C    -2.9387403    2.4171809    0.3699512 
N    -4.3549470    0.4894610    1.0261557 
H    -3.4681948    0.7916139   -0.8854867 
H    -4.9265495   -0.3023425    0.6478778 
H    -3.4952031    0.0538481    1.4403564 
O    -1.6299090    2.0186129    0.6237636 
O    -3.2825117    3.7579920    0.5228092 
H    -2.4745096    4.2731181    0.8460807 
