13
Energy =
C    -5.3770107    2.1437341   -0.1705565 
C    -4.0746628    1.3352825   -0.0196952 
H    -5.4590323    2.9277294    0.6129046 
H    -6.2622077    1.4749498   -0.0940160 
H    -5.4107543    2.6421946   -1.1656151 
C    -2.8160992    2.1868496   -0.2171330 
N    -4.0782238    0.6411177    1.2777115 
H    -4.0300788    0.5726255   -0.8355309 
H    -4.3008462    1.3059730    2.0560051 
H    -4.8320600   -0.0866661    1.2804413 
O    -2.0089096    1.9536378   -1.3243741 
O    -2.4725982    3.2195350    0.6562975 
H    -3.1314066    3.2941522    1.4141600 
