13
Energy =
C    -5.1725057    2.3922760    0.1430698 
C    -4.0282875    1.3760219   -0.0704479 
H    -5.7492323    2.1625765    1.0665295 
H    -5.8757418    2.3753807   -0.7163053 
H    -4.7922739    3.4317344    0.2642421 
C    -2.6606811    2.0503814   -0.1658559 
N    -4.0719524    0.3855187    1.0165979 
H    -4.1772895    0.8570804   -1.0477807 
H    -4.9259796   -0.2103757    0.9046634 
H    -3.2510912   -0.2625635    0.9349592 
O    -2.2174909    2.9083015    0.8327998 
O    -1.8487500    1.8223571   -1.2699221 
H    -2.1705240    2.3911534   -2.0390544 
