13
Energy =
C    -5.3303107    1.9028072    0.9454060 
C    -4.2330754    1.5520171   -0.0682233 
H    -6.0948151    1.0987393    0.9858167 
H    -5.8302622    2.8567237    0.6705997 
H    -4.8870068    2.0130579    1.9603827 
C    -3.2106617    2.6738257   -0.2150315 
N    -3.6024493    0.2927202    0.3547918 
H    -4.6950057    1.4276939   -1.0767616 
H    -4.2987624   -0.4856237    0.2791185 
H    -2.8285048    0.0537324   -0.3115533 
O    -2.7844803    3.4105974    0.8870575 
O    -2.6740327    2.9505401   -1.4676964 
H    -2.0022729    3.7022918   -1.3802869 
