13
Energy =
C    -5.3621536    1.9511876    0.1299477 
C    -3.9361325    1.4325105   -0.0871251 
H    -5.4330908    2.4480217    1.1231282 
H    -6.0903385    1.1140852    0.0982811 
H    -5.6327191    2.6925852   -0.6530673 
C    -2.9327667    2.5764403   -0.1603849 
N    -3.6143153    0.4996407    1.0032360 
H    -3.8831165    0.9082526   -1.0717110 
H    -4.2355309   -0.3409313    0.9312415 
H    -2.6376457    0.1405105    0.8672664 
O    -1.8851137    2.5186666   -1.0680262 
O    -3.0090612    3.6496028    0.7169690 
H    -2.5683655    3.3760268    1.5829769 
