13
Energy =
C    -5.2285849    2.2906790   -0.0810729 
C    -3.9619954    1.3898681   -0.0370683 
H    -5.9729703    2.0561501    0.7065348 
H    -5.7415809    2.1826229   -1.0607895 
H    -4.9708839    3.3678190    0.0426593 
C    -2.6797839    2.2082383    0.0819007 
N    -4.0709195    0.3375469    1.0032236 
H    -3.8647215    0.8807217   -1.0261748 
H    -3.2650896    0.3789854    1.6741583 
H    -4.9230594    0.4293179    1.6026294 
O    -2.5126906    3.1082364    1.1255717 
O    -1.6512806    2.0320754   -0.8325192 
H    -1.1312995    1.2033878   -0.5821291 
