13
Energy =
C    -5.4293976    2.1482099    0.2181410 
C    -4.1390120    1.3650494   -0.0360912 
H    -5.3169530    2.7983978    1.1136350 
H    -6.2688590    1.4428668    0.3996109 
H    -5.6781923    2.7850101   -0.6581617 
C    -2.9525075    2.2936770   -0.2601149 
N    -3.9340862    0.4453193    1.0931602 
H    -4.2587051    0.7746541   -0.9760372 
H    -3.1047973   -0.1624682    0.8912793 
H    -3.6832024    1.0003774    1.9487433 
O    -2.4125724    2.4384515   -1.5327473 
O    -2.4162867    3.0203064    0.7974728 
H    -1.6507285    3.5860756    0.4539130 
