13
Energy =
C    -5.4570264    2.0387397    0.0983942 
C    -4.0746851    1.3900914   -0.0538792 
H    -5.5285585    2.5416084    1.0891971 
H    -6.2589444    1.2737961    0.0338297 
H    -5.6223389    2.7983827   -0.6957924 
C    -2.9483127    2.4198372   -0.0419674 
N    -3.9123238    0.3988312    1.0195458 
H    -4.0192670    0.8868678   -1.0482390 
H    -4.5976601   -0.3798136    0.8767074 
H    -2.9611892   -0.0369040    0.9454882 
O    -1.7633730    2.1464065   -0.7179476 
O    -3.0710259    3.6171138    0.6572891 
H    -2.2117550    4.1422859    0.5671202 
