13
Energy =
C    -5.1960707    2.2765401   -0.2847604 
C    -3.9899670    1.3480438   -0.0529072 
H    -6.0871850    1.6836911   -0.5846005 
H    -4.9775305    3.0008498   -1.1005146 
H    -5.4455200    2.8421074    0.6395878 
C    -2.7050103    2.1217870    0.2261637 
N    -4.3020110    0.4046951    1.0310291 
H    -3.7889932    0.7699119   -0.9864562 
H    -4.4599474    0.9270899    1.9268161 
H    -5.1803195   -0.1207673    0.8096207 
O    -1.6960263    2.1566039   -0.7275985 
O    -2.5573565    2.8635080    1.3932185 
H    -3.0587425    3.7324543    1.2935538 
