13
Energy =
C    -5.0373997    2.3959305   -0.4555735 
C    -3.8569704    1.4646983   -0.0628637 
H    -4.8606461    3.4418488   -0.1156765 
H    -6.0119391    2.0893726   -0.0254262 
H    -5.1536377    2.4176389   -1.5602165 
C    -2.7311487    2.2359389    0.6204713 
N    -4.3171877    0.2936350    0.7232970 
H    -3.3880582    1.0763180   -0.9985439 
H    -3.8366936    0.2564278    1.6558759 
H    -5.3377517    0.3148685    0.9460361 
O    -1.5689767    2.5390763   -0.0775629 
O    -2.8765599    2.6912069    1.9247017 
H    -2.0331204    3.1835683    2.1907123 
