13
Energy =
C    -5.1818424    2.1791811   -0.3951446 
C    -3.9466249    1.3447307    0.0265205 
H    -6.0503154    2.0140088    0.2780201 
H    -5.4952717    1.9076724   -1.4260069 
H    -4.9642418    3.2723369   -0.3829632 
C    -2.7310259    2.2126645    0.3328528 
N    -4.2940615    0.4758919    1.1627298 
H    -3.6252224    0.7028835   -0.8294608 
H    -4.6506155    1.0575830    1.9596730 
H    -5.0658862   -0.1752418    0.8823241 
O    -1.6890525    2.2966104   -0.5808417 
O    -2.6792801    2.9789468    1.4895932 
H    -2.3451697    2.3904868    2.2384871 
