13
Energy =
C    -5.2167820    2.3045924   -0.1764050 
C    -3.9856581    1.3789543   -0.0281440 
H    -6.0135088    2.0438499    0.5538100 
H    -5.6431680    2.2177063   -1.1978416 
H    -4.9665261    3.3743450   -0.0028085 
C    -2.6834962    2.1356177    0.2549533 
N    -4.2843750    0.3817303    1.0134269 
H    -3.8048249    0.8588299   -0.9977852 
H    -5.0174938   -0.2739053    0.6547610 
H    -3.4332344   -0.2064345    1.1890295 
O    -2.5218835    3.4587282   -0.1457921 
O    -1.5927850    1.4717393    0.8045400 
H    -0.8267842    2.1272595    0.8888800 
