13
Energy =
C    -5.2852995    2.2054190   -0.0165157 
C    -3.9953770    1.3718131   -0.1236941 
H    -5.3096611    2.9869791   -0.8078076 
H    -5.3394135    2.7157642    0.9713170 
H    -6.1810094    1.5593228   -0.1353067 
C    -2.7400285    2.2304515   -0.0411872 
N    -4.0014833    0.3287578    0.9134609 
H    -3.9528090    0.8910426   -1.1305063 
H    -4.0609596    0.7715004    1.8633432 
H    -4.8468537   -0.2800689    0.8017750 
O    -2.6395410    3.2521377    0.8954633 
O    -1.6573719    1.9583920   -0.8649070 
H    -1.1318525    1.2010536   -0.4523576 
