13
Energy =
C    -5.3120145    2.2080290    0.5977840 
C    -4.1859480    1.6361561   -0.2847038 
H    -6.2386168    1.6035860    0.4964995 
H    -5.5467215    3.2529243    0.2951120 
H    -5.0057135    2.2233555    1.6672181 
C    -2.8906873    2.4592906   -0.2303554 
N    -3.9507289    0.2328198    0.0862529 
H    -4.5162074    1.6779853   -1.3484583 
H    -3.7010551    0.1672563    1.1029847 
H    -4.8279513   -0.3226503   -0.0547358 
O    -2.8439095    3.6482954    0.4906424 
O    -1.7529864    2.0572289   -0.9291438 
H    -1.8968998    1.1611481   -1.3732811 
