13
Energy =
C    -5.3912636    1.5682519    0.1429598 
C    -3.8895925    1.4198087   -0.1244291 
H    -5.5646072    1.9876666    1.1587916 
H    -5.8863479    0.5747911    0.0852892 
H    -5.8573675    2.2453834   -0.6054717 
C    -3.1657679    2.7554412   -0.0489738 
N    -3.3533509    0.4295731    0.8229892 
H    -3.7413255    1.0570368   -1.1710563 
H    -2.3362778    0.2743226    0.6220080 
H    -3.3993931    0.8202749    1.7963068 
O    -3.0488291    3.4326110    1.1599928 
O    -2.6217258    3.3113459   -1.1984223 
H    -2.1906813    4.1959773   -0.9608088 
