13
Energy =
C    -5.2428625    2.1718782    0.3722284 
C    -4.0499700    1.4183401   -0.2385742 
H    -5.0513216    2.4083785    1.4425118 
H    -6.1697343    1.5644709    0.2962229 
H    -5.4093189    3.1295436   -0.1696529 
C    -2.7734475    2.2465606   -0.1837937 
N    -3.8893999    0.1215689    0.4371761 
H    -4.2466983    1.2422966   -1.3229960 
H    -3.8033616    0.2663374    1.4725439 
H    -4.7443395   -0.4624184    0.2780012 
O    -2.3980575    3.0145539   -1.2776520 
O    -2.0049566    2.2946120    0.9719436 
H    -1.3915017    1.4933127    0.9719074 
