13
Energy =
C    -5.3196999    2.1334203    0.6151013 
C    -4.1379678    1.5312109   -0.1642882 
H    -5.0350280    2.3110695    1.6760790 
H    -6.1944982    1.4497915    0.5862861 
H    -5.6217388    3.1055611    0.1666856 
C    -2.9472828    2.4775126   -0.2025087 
N    -3.7782137    0.2293007    0.4180217 
H    -4.4338083    1.3838688   -1.2299667 
H    -3.4837739    0.3548056    1.4170214 
H    -4.6092372   -0.4075043    0.4099399 
O    -2.2453524    2.7807350    0.9605365 
O    -2.5920841    3.0999659   -1.3928344 
H    -1.7838551    3.6849872   -1.2244752 
