13
Energy =
C    -5.0046929    2.6415819   -0.0493465 
C    -3.7438812    1.7463090   -0.1168314 
H    -5.4673169    2.6446381    0.9633063 
H    -5.7919831    2.2906159   -0.7517007 
H    -4.7518946    3.6907952   -0.3110877 
C    -3.3450818    1.1766936    1.2438152 
N    -3.9701245    0.6807593   -1.1072830 
H    -2.8746767    2.3723184   -0.4333272 
H    -4.1014326    1.1111450   -2.0538130 
H    -3.1139213    0.0818239   -1.1830187 
O    -4.3038805    0.7874176    2.1715800 
O    -2.0022409    1.0048261    1.5529966 
H    -1.6661129    0.1734289    1.0901693 
