13
Energy =
C    -5.2575231    2.1041139   -0.2812898 
C    -3.9458860    1.3504073   -0.0241732 
H    -5.4470006    2.8182462    0.5511310 
H    -6.1098869    1.3949450   -0.3377060 
H    -5.2093766    2.6743421   -1.2331859 
C    -2.7397246    2.2926623    0.0407347 
N    -4.1129909    0.5839525    1.2200241 
H    -3.7517809    0.6548496   -0.8731125 
H    -4.7952885   -0.1936492    1.0578723 
H    -3.2061049    0.1195894    1.4713280 
O    -1.5324150    1.8416473    0.5596260 
O    -2.7839432    3.5559169   -0.5405683 
H    -2.7021387    3.4613797   -1.5417580 
