13
Energy =
C    -5.2474906    2.3000974   -0.1391107 
C    -3.9766090    1.4151870   -0.0134729 
H    -6.0416063    2.0490528    0.5923512 
H    -5.6853202    2.1942744   -1.1546527 
H    -5.0100406    3.3774984    0.0134143 
C    -2.7230887    2.2562118    0.2088948 
N    -4.1454763    0.3475117    1.0029553 
H    -3.7966647    0.9167096   -0.9958485 
H    -3.4090618    0.4191608    1.7476385 
H    -5.0545094    0.3982435    1.5154196 
O    -1.8365730    2.4776719   -0.8374518 
O    -2.4823190    2.8545137    1.4391915 
H    -1.6151304    3.3734459    1.3816949 
