13
Energy =
C    -5.4454430    2.0349831    0.1159054 
C    -4.1003488    1.3077859    0.0474496 
H    -6.2463521    1.3184208    0.3993198 
H    -5.6969328    2.4838247   -0.8693987 
H    -5.4109271    2.8426038    0.8796554 
C    -2.9650029    2.2604609   -0.3046291 
N    -3.8882744    0.6168825    1.3287070 
H    -4.1433734    0.5538725   -0.7745626 
H    -3.0082849    0.0512281    1.2693581 
H    -3.7203244    1.3307570    2.0806322 
O    -2.4531923    2.2830947   -1.5968389 
O    -2.4546172    3.1354291    0.6482505 
H    -1.7260269    3.6956339    0.2247467 
