13
Energy =
C    -5.3311459    1.7622920   -0.3283471 
C    -3.9138287    1.3433863    0.0726962 
H    -5.6859081    2.5882883    0.3273716 
H    -6.0256709    0.9020065   -0.2185915 
H    -5.3529418    2.1109986   -1.3833090 
C    -2.9281731    2.4970323   -0.0538325 
N    -3.9693474    0.7961478    1.4368137 
H    -3.5609568    0.5515452   -0.6313388 
H    -3.0221990    0.4311772    1.6982891 
H    -4.1747795    1.5736788    2.1115094 
O    -1.8677281    2.4115883   -0.9473511 
O    -3.0806337    3.6433088    0.7170253 
H    -2.3355770    4.2899144    0.4909755 
