13
Energy =
C    -5.3016879    2.2087597   -0.1558122 
C    -4.0115776    1.3746378   -0.0480945 
H    -5.2336619    2.9223345   -1.0081202 
H    -5.4806065    2.7936157    0.7723315 
H    -6.1787867    1.5483251   -0.3316112 
C    -2.7572367    2.2398208    0.1079200 
N    -4.1527560    0.3929362    1.0397942 
H    -3.8554104    0.8268931   -1.0100581 
H    -4.5019770    0.8498934    1.9153959 
H    -4.8691327   -0.3233552    0.7712979 
O    -1.8574488    2.3199319   -0.9481453 
O    -2.5135398    2.9967048    1.2540677 
H    -3.2306179    2.8538170    1.9462207 
