13
Energy =
C    -5.3807153    1.9662833   -0.0294551 
C    -3.9601407    1.3930185   -0.0801986 
H    -5.5152658    2.5355802    0.9178404 
H    -6.1333048    1.1514937   -0.0665045 
H    -5.5535428    2.6572156   -0.8823623 
C    -2.8997682    2.4899909   -0.0995594 
N    -3.7904657    0.4942198    1.0709888 
H    -3.8312235    0.8240719   -1.0311560 
H    -4.3895911   -0.3537890    0.9355398 
H    -2.8007228    0.1459069    1.0919870 
O    -1.6208985    2.2005294   -0.5620922 
O    -3.1822722    3.7750712    0.3530204 
H    -2.3435486    4.3363768    0.2833085 
