13
Energy =
C    -5.2915550    1.9719429   -0.1462380 
C    -3.9207081    1.2839413   -0.0155331 
H    -5.4584873    2.6687246    0.7059367 
H    -6.1085467    1.2195435   -0.1607601 
H    -5.3407312    2.5584762   -1.0899302 
C    -2.7765289    2.2863148   -0.0522661 
N    -3.8954808    0.4767880    1.2142615 
H    -3.7504593    0.6181102   -0.8951923 
H    -4.0231724    1.0989482    2.0495896 
H    -4.6851266   -0.2107996    1.2088396 
O    -2.6410605    3.2450740    0.9472303 
O    -1.8826952    2.2832058   -1.1150599 
H    -1.1984381    3.0121250   -0.9600067 
