13
Energy =
C    -5.2315782    2.2293848   -0.2379266 
C    -3.9549327    1.3862351   -0.0746310 
H    -6.0801792    1.5936824   -0.5683309 
H    -5.0749058    3.0262470   -0.9979042 
H    -5.4982748    2.7159296    0.7267343 
C    -2.7571731    2.2449261    0.3090604 
N    -4.1940043    0.3197723    0.9097618 
H    -3.6917740    0.9222682   -1.0542990 
H    -4.4114252    0.7459292    1.8436891 
H    -5.0216370   -0.2536580    0.6230267 
O    -1.6972479    2.4012521   -0.5771503 
O    -2.7333263    2.9257068    1.5213566 
H    -1.8580315    3.4278794    1.5895773 
