13
Energy =
C    -5.1588943    1.9679059   -0.5058287 
C    -3.9820898    1.3259675    0.2524421 
H    -6.0449748    1.2982359   -0.4975082 
H    -4.8773848    2.1649233   -1.5640440 
H    -5.4377440    2.9402573   -0.0415480 
C    -2.7163219    2.1708726    0.1891377 
N    -4.3784111    1.0678515    1.6439721 
H    -3.7180181    0.3597530   -0.2389314 
H    -4.6485432    1.9714792    2.1042120 
H    -5.2236412    0.4495110    1.6609656 
O    -2.7770627    3.5524878    0.3227326 
O    -1.4767204    1.5590340    0.0714641 
H    -1.2006336    1.2301660    0.9852264 
