13
Energy =
C    -5.2528304    2.3167616    0.1192233 
C    -4.0305581    1.3903948   -0.0769943 
H    -5.8396404    2.0268804    1.0182400 
H    -5.9237092    2.2681695   -0.7642412 
H    -4.9532792    3.3783907    0.2684246 
C    -2.7125633    2.1554586   -0.1500231 
N    -4.0194406    0.3885270    1.0014772 
H    -4.1157022    0.8760101   -1.0649296 
H    -4.8350386   -0.2566090    0.8773101 
H    -3.1619443   -0.2087896    0.9111313 
O    -2.4403656    3.2112833    0.7144230 
O    -1.7526285    1.7804580   -1.0810876 
H    -0.9441096    2.3789475   -0.9689035 
