13
Energy =
C    -5.4141417    1.8342975    0.5847401 
C    -4.0956820    1.4613135   -0.0983726 
H    -6.0931240    0.9544331    0.5971746 
H    -5.9141807    2.6652453    0.0412432 
H    -5.2320392    2.1516459    1.6348662 
C    -3.1237178    2.6332054   -0.1229248 
N    -3.5473229    0.2767362    0.5811758 
H    -4.3036012    1.2116223   -1.1665972 
H    -2.6806127   -0.0352426    0.0812575 
H    -3.2434116    0.5408329    1.5511318 
O    -2.4535778    3.0235409    1.0321643 
O    -2.9256967    3.3421997   -1.3004681 
H    -2.2633717    4.0879770   -1.1287138 
