13
Energy =
C    -5.4240651    1.8922140    0.0396854 
C    -3.9736757    1.4320124   -0.1950401 
H    -5.5563607    2.2479785    1.0860424 
H    -6.1349989    1.0593126   -0.1478035 
H    -5.6803766    2.7285871   -0.6476596 
C    -2.9777965    2.5679633   -0.0126095 
N    -3.6726476    0.2984361    0.6928617 
H    -3.8513023    1.1090857   -1.2568465 
H    -3.7717563    0.5957895    1.6942934 
H    -4.3567942   -0.4767660    0.5270416 
O    -2.7721660    3.1368279    1.2413029 
O    -2.3017887    3.0803077   -1.1136334 
H    -1.6886914    3.8231961   -0.8040694 
