13
Energy =
C    -5.2604527    2.2507426    0.0851698 
C    -4.0025381    1.3825646   -0.1344485 
H    -5.8565709    1.8877577    0.9508927 
H    -5.9179297    2.2123173   -0.8092455 
H    -5.0100305    3.3173813    0.2804246 
C    -2.6992671    2.1903038   -0.0600796 
N    -4.0226062    0.2762229    0.8344475 
H    -4.0660819    0.9543538   -1.1614676 
H    -3.2488558   -0.3946349    0.6107969 
H    -3.8184682    0.6491762    1.7948250 
O    -2.5281115    3.1259832    0.9533693 
O    -1.6498808    1.9711616   -0.9526750 
H    -1.8490764    1.2307170   -1.6082573 
