13
Energy =
C    -5.3602150    2.1440516    0.2572356 
C    -4.0207367    1.4643133   -0.1087683 
H    -5.9331511    1.5374634    0.9916588 
H    -5.9876013    2.2785613   -0.6488154 
H    -5.2087477    3.1423524    0.7246583 
C    -2.8062442    2.3590431    0.1343206 
N    -3.9156701    0.1966531    0.6309996 
H    -4.0123036    1.2534999   -1.2049848 
H    -4.6347415   -0.4710798    0.2653246 
H    -2.9857667   -0.2443223    0.4281854 
O    -1.6921057    2.2427668   -0.6890041 
O    -2.7744322    3.2712367    1.1835576 
H    -1.8683542    3.7207933    1.1909825 
