13
Energy =
C    -5.3517762    2.2854358    0.3778018 
C    -4.1317065    1.5164334   -0.1586757 
H    -6.2890895    1.7193749    0.1866445 
H    -5.4386501    3.2760488   -0.1207750 
H    -5.2575498    2.4552010    1.4742826 
C    -2.8309227    2.3040501    0.0376003 
N    -4.0701507    0.1959711    0.4856342 
H    -4.2519506    1.3631668   -1.2556612 
H    -3.9682021    0.3067470    1.5243177 
H    -4.9600825   -0.3295355    0.3151803 
O    -2.2104775    2.3115198    1.2823553 
O    -2.2891745    3.0864650   -0.9846131 
H    -2.8428272    3.0576969   -1.8269234 
