13
Energy =
C    -5.3639682    2.1555266    0.2491571 
C    -4.0508988    1.4553981   -0.1167745 
H    -5.4917922    3.0938979   -0.3322861 
H    -5.3713605    2.3999750    1.3362222 
H    -6.2294716    1.4906833    0.0408831 
C    -2.8485124    2.3868510    0.0868542 
N    -3.9587890    0.2313118    0.6935329 
H    -4.0657188    1.1863184   -1.1990166 
H    -4.6633274   -0.4660116    0.3553901 
H    -3.0171853   -0.2126425    0.5647496 
O    -2.0488237    2.2660395    1.2174024 
O    -2.5459907    3.3827928   -0.8427188 
H    -3.2179415    3.4138127   -1.5946286 
