13
Energy =
C    -5.1983476    2.0733126   -0.4059628 
C    -3.9088243    1.3418963    0.0079323 
H    -5.5980604    2.6721892    0.4416265 
H    -5.9750147    1.3486591   -0.7306110 
H    -4.9977862    2.7682774   -1.2518330 
C    -2.7881560    2.3034929    0.4299858 
N    -4.2376242    0.3679286    1.0633263 
H    -3.4976297    0.8027913   -0.8791004 
H    -4.6985508    0.8523517    1.8727496 
H    -4.9228082   -0.3374302    0.6982460 
O    -2.7745868    3.6056642   -0.0560950 
O    -1.7211728    1.8790498    1.2189901 
H    -1.8493284    0.9184953    1.5020620 
