13
Energy =
C    -4.9760712    2.0682501   -0.6940652 
C    -3.9345387    1.3375104    0.1739274 
H    -5.7312089    1.3545973   -1.0867303 
H    -4.4828336    2.5685260   -1.5569462 
H    -5.4976818    2.8513775   -0.0999172 
C    -2.8170263    2.2576538    0.6485976 
N    -4.6106170    0.6929279    1.3088572 
H    -3.4293928    0.5571899   -0.4435861 
H    -5.1071581    1.4197138    1.8802794 
H    -5.3405366    0.0297716    0.9554681 
O    -3.0868025    3.5639150    1.0384590 
O    -1.5222417    1.7731714    0.7647058 
H    -1.4517508    1.2758704    1.6406397 
