13
Energy =
C    -4.8505188    1.5693024    1.5033324 
C    -4.0353770    1.3025876    0.2332415 
H    -4.7411713    0.7189304    2.2100470 
H    -5.9270905    1.6978784    1.2572615 
H    -4.4948315    2.4953250    2.0055068 
C    -4.1710370    2.4307543   -0.7824080 
N    -2.6397623    1.0524873    0.6256836 
H    -4.4464327    0.3927379   -0.2685329 
H    -2.0798298    0.8014468   -0.2252722 
H    -2.2162829    1.9237250    1.0250419 
O    -4.4064490    2.1317675   -2.1157535 
O    -4.0257049    3.7586991   -0.4022693 
H    -3.0447524    3.9622328   -0.2878927 
