13
Energy =
C    -5.3300146    2.2335111    0.2956384 
C    -4.0992955    1.4760510   -0.2373157 
H    -5.1606648    2.5741917    1.3411381 
H    -6.2337501    1.5882641    0.2672516 
H    -5.5278174    3.1333649   -0.3282374 
C    -2.8230287    2.3296780   -0.2596561 
N    -3.9143612    0.2460104    0.5473129 
H    -4.2887968    1.2009987   -1.3006738 
H    -3.8002584    0.4805998    1.5633877 
H    -4.7641271   -0.3610948    0.4609986 
O    -2.8745838    3.6778769    0.0795684 
O    -1.6009159    1.7870205   -0.6539200 
H    -1.6845956    0.7954028   -0.8279766 
