13
Energy =
C    -5.1287110    1.8998695   -0.8078030 
C    -3.9363195    1.3504095   -0.0124213 
H    -4.8071890    2.2283783   -1.8204082 
H    -5.5652900    2.7764911   -0.2791964 
H    -5.9167945    1.1255884   -0.9182069 
C    -2.7836720    2.3471455    0.0529408 
N    -4.4081611    0.9856507    1.3314555 
H    -3.5351571    0.4497137   -0.5363977 
H    -5.1190555    0.2203303    1.2516394 
H    -3.6101998    0.5774229    1.8764614 
O    -1.4746251    1.8839318    0.0704418 
O    -3.0202048    3.7104116    0.1777195 
H    -3.1519005    3.9193796    1.1566081 
