13
Energy =
C    -5.4161160    2.0495725   -0.0473831 
C    -4.0513540    1.3524256    0.0365120 
H    -6.2274288    1.3042781    0.1095296 
H    -5.5579829    2.5171569   -1.0469966 
H    -5.5215689    2.8338648    0.7314321 
C    -2.8763309    2.2885743   -0.2606774 
N    -3.9484072    0.6969671    1.3499480 
H    -4.0124463    0.5710311   -0.7627963 
H    -3.0484815    0.1602950    1.4049964 
H    -3.9186373    1.4123734    2.1147288 
O    -2.0092935    1.9694520   -1.2970150 
O    -2.6295871    3.4373597    0.4904595 
H    -3.3318256    3.5811840    1.1981713 
