13
Energy =
C    -5.2864121    2.3766167    0.6547988 
C    -4.1631067    1.6552394   -0.1407557 
H    -5.7036940    1.7755151    1.4876998 
H    -6.1297566    2.6314267   -0.0223266 
H    -4.9224054    3.3288793    1.1053254 
C    -2.8697076    2.4654942   -0.1572670 
N    -3.9630157    0.2622645    0.3286827 
H    -4.4758718    1.6080281   -1.2109547 
H    -2.9656856    0.0942383    0.6101451 
H    -4.5233667    0.0254430    1.1788851 
O    -2.1801675    2.7081481    1.0226916 
O    -2.3687496    2.9645253   -1.3509692 
H    -1.8797408    2.2258801   -1.8355680 
