13
Energy =
C    -5.1493367    2.3298386    0.0059325 
C    -3.9785027    1.3313481   -0.1076963 
H    -5.7761992    2.1161676    0.8998296 
H    -5.8071601    2.2556092   -0.8859523 
H    -4.7978503    3.3819044    0.0957036 
C    -2.6179785    2.0185771   -0.0564958 
N    -4.1288462    0.3102229    0.9415901 
H    -4.0258314    0.8310667   -1.1052553 
H    -3.4103787   -0.4392187    0.7947352 
H    -3.9100342    0.7369489    1.8760495 
O    -2.1894431    2.6425873    1.1073657 
O    -1.8159336    2.0681451   -1.1878974 
H    -2.1531453    2.7953297   -1.8013567 
