13
Energy =
C    -5.2192658    1.8369291   -0.4347888 
C    -3.7906770    1.4196517   -0.0249874 
H    -5.9813874    1.3675201    0.2246662 
H    -5.4292090    1.5226326   -1.4782453 
H    -5.3712423    2.9368858   -0.3724301 
C    -2.8884208    2.6122316    0.3118022 
N    -3.9132718    0.4377982    1.0741405 
H    -3.2890494    0.9496130   -0.9046416 
H    -3.6111231   -0.5060263    0.7366188 
H    -3.2809456    0.6731526    1.8784148 
O    -1.7789337    2.4487077    1.1339128 
O    -3.0892999    3.8461732   -0.2945605 
H    -2.3673742    4.4816277    0.0219325 
