13
Energy =
C    -5.1828203    2.2917856    0.0444079 
C    -3.9938583    1.3357746   -0.0857152 
H    -5.2070691    3.0032130   -0.8091088 
H    -5.1088235    2.8714033    0.9910470 
H    -6.1317503    1.7140715    0.0585693 
C    -2.6710366    2.0857103   -0.1087046 
N    -4.0711884    0.3567160    1.0099598 
H    -4.0619436    0.8054997   -1.0662629 
H    -3.3194009   -0.3616380    0.8780176 
H    -3.8574727    0.8348635    1.9199614 
O    -2.2477595    2.8093716    1.0002991 
O    -1.8818551    2.0654018   -1.2492701 
H    -1.0513116    2.6179941   -1.0768801 
