13
Energy =
C    -5.1652093    2.1288853   -0.3265168 
C    -3.9355718    1.2767362    0.0093508 
H    -5.3910056    2.8111608    0.5233566 
H    -6.0492739    1.4825651   -0.5070163 
H    -4.9791398    2.7452003   -1.2325507 
C    -2.6739164    2.1196562    0.1677307 
N    -4.2306598    0.5091573    1.2279679 
H    -3.7336495    0.5808769   -0.8387431 
H    -4.9573615   -0.2121930    1.0099706 
H    -3.3719887   -0.0244015    1.5109317 
O    -2.7428399    3.4937598    0.3811387 
O    -1.4294260    1.5047874    0.1105516 
H    -0.7130978    2.2060484    0.2496134 
