13
Energy =
C    -5.2247890    2.2634587    0.1469342 
C    -3.9826664    1.3798112   -0.0963964 
H    -5.7920455    1.9257300    1.0417357 
H    -5.9120179    2.2121714   -0.7239500 
H    -4.9543087    3.3309882    0.3110471 
C    -2.6840882    2.1779251   -0.0741775 
N    -3.9836245    0.2858299    0.8886817 
H    -4.0500624    0.9481120   -1.1244722 
H    -3.2229087   -0.3958454    0.6553080 
H    -3.7542374    0.6717115    1.8384519 
O    -2.3768573    2.9925523    1.0074090 
O    -1.7800507    2.0707734   -1.1213178 
H    -1.2522234    1.2168686   -1.0149454 
