13
Energy =
C    -5.3102990    2.2355287    0.1155053 
C    -4.0449424    1.4061506   -0.1371792 
H    -5.2571204    2.7082843    1.1224335 
H    -6.2138106    1.5914237    0.0785019 
H    -5.4134159    3.0374928   -0.6473242 
C    -2.7821705    2.2791994   -0.1858489 
N    -3.9584172    0.3814046    0.9128694 
H    -4.1439729    0.9174650   -1.1340835 
H    -4.7488691   -0.2972942    0.8022631 
H    -3.0788914   -0.1760164    0.7930491 
O    -2.7537534    3.5114200    0.4593839 
O    -1.6357081    1.8490918   -0.8559164 
H    -1.7558591    0.9321628   -1.2587507 
