13
Energy =
C    -5.2382559    2.2780259   -0.0762893 
C    -3.9652607    1.3990441   -0.0404177 
H    -6.0210193    1.8918702    0.6126738 
H    -5.6629767    2.3015026   -1.1019599 
H    -5.0383758    3.3281353    0.2328014 
C    -2.7039232    2.1833623    0.3445581 
N    -4.2171616    0.2672672    0.8672352 
H    -3.7666113    1.0125603   -1.0671009 
H    -4.9335351   -0.3642973    0.4371254 
H    -3.3483517   -0.3094446    0.9732136 
O    -2.5866367    3.5303588    0.0222387 
O    -1.5893729    1.5284113    0.8557780 
H    -1.1123090    1.0561269    0.1031889 
