13
Energy =
C    -5.3130973    2.1690662   -0.0164108 
C    -3.9744541    1.3950402   -0.1323195 
H    -5.9748609    1.7466436    0.7701204 
H    -5.8654755    2.1307946   -0.9797757 
H    -5.1530229    3.2420232    0.2381729 
C    -2.7481743    2.2811148    0.0560071 
N    -3.9652827    0.2668308    0.8119096 
H    -3.8719485    0.9964494   -1.1705783 
H    -4.0670945    0.6269117    1.7928682 
H    -4.7810636   -0.3626511    0.6210767 
O    -2.6971701    3.2138200    1.0849039 
O    -1.6418224    2.1201502   -0.7655186 
H    -1.1025532    1.3407715   -0.4165916 
