13
Energy =
C    -5.1764869    2.4952962    0.0147876 
C    -3.9450183    1.6144075   -0.2293753 
H    -5.4814463    2.4833111    1.0821428 
H    -6.0312338    2.1133945   -0.5855152 
H    -4.9750313    3.5458041   -0.2905413 
C    -2.6794910    2.1489469    0.4483306 
N    -4.2781063    0.2370717    0.1668984 
H    -3.7231899    1.6317434   -1.3254415 
H    -3.4954847   -0.4032397   -0.1129913 
H    -4.3691755    0.1596525    1.2073872 
O    -1.5770497    2.4613846   -0.3352829 
O    -2.5930416    2.3278761    1.8289263 
H    -3.4479046    2.0761882    2.2970920 
