13
Energy =
C    -5.2068778    2.2498069   -0.1177289 
C    -3.9549070    1.3360708    0.0007857 
H    -5.9550299    2.0913276    0.6850628 
H    -5.7186737    2.0700537   -1.0873923 
H    -4.9303818    3.3281551   -0.0807873 
C    -2.6646587    2.1457081    0.0496469 
N    -4.0785727    0.3748431    1.1246961 
H    -3.8552886    0.7447168   -0.9414226 
H    -3.2886395    0.4863399    1.8071080 
H    -4.9480199    0.5019443    1.6904602 
O    -2.3237074    2.8686752    1.1868379 
O    -1.8386789    2.2037971   -1.0636785 
H    -1.0421941    2.7886905   -0.8438646 
