13
Energy =
C    -5.3019140    2.1995654    0.0492451 
C    -3.9762043    1.4481853   -0.1245815 
H    -6.1508425    1.5775035   -0.3042911 
H    -5.2936363    3.1521372   -0.5242854 
H    -5.4604166    2.4387867    1.1244950 
C    -2.7819169    2.3296989    0.2204924 
N    -4.0181673    0.2427451    0.7167033 
H    -3.8539303    1.1653542   -1.1981880 
H    -4.7848548   -0.3872728    0.3797081 
H    -3.1293382   -0.2983391    0.5829644 
O    -1.6295812    2.2658503   -0.5504977 
O    -2.8016855    3.1502345    1.3400512 
H    -2.5305822    2.5924040    2.1363555 
