13
UFF-Energy = 0.0604835
C    -5.2074480    2.4029471    0.0771607 
C    -4.0258575    1.4515284   -0.1317248 
H    -5.1580066    3.2500818   -0.6408213 
H    -5.1952238    2.8139115    1.1104817 
H    -6.1633721    1.8576256   -0.0755753 
C    -2.6909293    2.1591341    0.0693865 
N    -4.2023054    0.2937197    0.7586655 
H    -4.0365138    1.1025938   -1.1925009 
H    -3.4413948   -0.4045122    0.5760364 
H    -4.1170103    0.5900106    1.7602990 
O    -1.7559889    2.1764783   -0.9553180 
O    -2.3952015    2.7973205    1.2675789 
H    -2.1288581    2.1056379    1.9517720 
