13
UFF-Energy = 0.0775567
C    -5.2191586    1.9462997   -0.1989192 
C    -3.9078346    1.1859829    0.0659115 
H    -5.1992646    2.4256408   -1.2017265 
H    -5.3700995    2.7406773    0.5665774 
H    -6.0855633    1.2514715   -0.1656871 
C    -2.6898844    2.0996579   -0.0268290 
N    -3.9853640    0.5222649    1.3752035 
H    -3.7707106    0.4072687   -0.7204578 
H    -4.1114884    1.2367761    2.1331682 
H    -4.8113610   -0.1206661    1.4042799 
O    -2.5104340    3.1271680    0.8922640 
O    -1.8011139    1.9782863   -1.0878365 
H    -2.1924233    2.4355070   -1.8973013 
