13
UFF-Energy = 0.0724692
C    -5.3054307    2.3430782    0.4085080 
C    -4.0963490    1.5611738   -0.1355902 
H    -5.3586223    3.3531753   -0.0536665 
H    -5.2216959    2.4675156    1.5120758 
H    -6.2523040    1.8066324    0.1791581 
C    -2.7887654    2.3311786    0.0990474 
N    -4.0835732    0.1889523    0.4246189 
H    -4.2034561    1.4685610   -1.2410832 
H    -3.2134706    0.0026376    0.9822754 
H    -4.8786270    0.0133579    1.0840097 
O    -2.1139856    2.1969637    1.3068893 
O    -2.2885332    3.2231823   -0.8497183 
H    -2.8927870    3.3117903   -1.6520842 
