13
UFF-Energy = 0.0657011
C    -5.1324704    2.1749636    0.8306060 
C    -4.1069166    1.5443617   -0.1287583 
H    -5.3921615    3.2053391    0.4976977 
H    -4.7249264    2.2383069    1.8631996 
H    -6.0659121    1.5723376    0.8533195 
C    -2.8331343    2.3812947   -0.2503648 
N    -3.8312190    0.1586052    0.2847422 
H    -4.5312767    1.5364143   -1.1633205 
H    -3.6331815    0.1040824    1.3115864 
H    -4.6791939   -0.4324356    0.1117295 
O    -2.6385070    3.1405259   -1.3974557 
O    -1.8969301    2.4738427    0.7797570 
H    -2.1283904    1.8666154    1.5489427 
