13
UFF-Energy = 0.0473177
C    -4.9897599    1.9482170   -0.6978071 
C    -3.8833764    1.2749198    0.1358507 
H    -4.5561134    2.4325187   -1.5998219 
H    -5.4974995    2.7341673   -0.0940361 
H    -5.7401481    1.1981919   -1.0259534 
C    -2.7948545    2.2611393    0.5332266 
N    -4.4588225    0.6256201    1.3298683 
H    -3.3790384    0.5144478   -0.5069137 
H    -5.5005864    0.7195748    1.3800608 
H    -4.2445343   -0.3990250    1.3125620 
O    -3.1169607    3.5262886    1.0165348 
O    -1.4571955    1.9076120    0.4086891 
H    -0.8920005    2.6760861    0.7450282 
