13
UFF-Energy = 0.0615346
C    -5.1471916    2.3065636   -0.1925403 
C    -3.9588289    1.3650544    0.0284338 
H    -4.9762154    2.9512193   -1.0825830 
H    -5.3117122    2.9510758    0.6973911 
H    -6.0701503    1.7097242   -0.3606113 
C    -2.6464888    2.1216958    0.1999223 
N    -4.2699265    0.4992882    1.1764653 
H    -3.8270683    0.7354791   -0.8856698 
H    -3.5025982   -0.2065151    1.2889216 
H    -4.2569985    1.0702242    2.0567312 
O    -1.7381145    2.1721820   -0.8465252 
O    -2.3585516    2.7957546    1.3796359 
H    -2.8759052    3.6613884    1.3966448 
