13
UFF-Energy = 0.0700108
C    -5.2826391    2.0531239   -0.2226003 
C    -3.9207438    1.3642024   -0.0668756 
H    -5.2839196    2.7427656   -1.0935304 
H    -5.5116047    2.6406646    0.6944037 
H    -6.0855320    1.3001185   -0.3673575 
C    -2.7802777    2.3735115    0.0988213 
N    -4.0194596    0.4473292    1.0793105 
H    -3.6942839    0.7880419   -0.9937889 
H    -4.6426678   -0.3554808    0.8271491 
H    -3.0783259    0.0269384    1.2779738 
O    -1.5593503    1.9663339    0.6225004 
O    -2.8917574    3.6651157   -0.4051651 
H    -2.7666583    3.6399944   -1.4061446 
