13
UFF-Energy = 0.0756596
C    -5.3007380    2.1450290    0.6708916 
C    -4.1437782    1.7532414   -0.2712193 
H    -5.4810089    3.2422223    0.6302410 
H    -5.0512070    1.8753741    1.7219561 
H    -6.2408673    1.6315042    0.3762649 
C    -2.8383093    2.4913713    0.0556623 
N    -3.9488819    0.2885525   -0.2429696 
H    -4.4130748    2.0877466   -1.3014161 
H    -4.6974145   -0.2113438    0.2942473 
H    -3.9881608   -0.0929312   -1.2178397 
O    -2.8391068    3.5510457    0.9572157 
O    -1.6465634    2.1798670   -0.5995216 
H    -1.7473691    1.3615592   -1.1808702 
