24
UFF-Energy = 0.0732446
C     2.1245636    2.5910005    0.4056789 
C     0.8584472    3.0238147    0.1633842 
C    -0.0217191    2.2033755   -0.4539183 
C     2.5025878    1.3430067    0.0296523 
C     1.6177750    0.5174594   -0.5950943 
C     0.3506685    0.9542853   -0.8320267 
O     0.4360445    4.3030258    0.5388828 
H     1.1532136    4.8593547    0.9916262 
H    -0.3713350    0.3081276   -1.3251342 
H     3.5170071    1.0104197    0.2344615 
H     2.8369678    3.2413904    0.9016018 
H    -1.0286876    2.5608439   -0.6401593 
C     2.0271563   -0.8810797   -1.0018487 
C     1.5045127   -1.9596700   -0.0173685 
H     3.1343720   -0.9588961   -1.0944269 
H     1.6295917   -1.0836230   -2.0229670 
C     1.7380955   -3.3822743   -0.5326625 
O     2.4648355   -3.5974342   -1.6997369 
O     1.2178383   -4.4855381    0.1428100 
H     0.7908417   -4.2103912    1.0164732 
N     2.1047182   -1.7797161    1.3161768 
H     0.3985278   -1.8591735    0.0677308 
H     3.1491323   -1.7353519    1.2408564 
H     1.7766746   -0.8782780    1.7368305 
