24
UFF-Energy = 0.0657819
C     1.3910995    2.7940131   -0.4772059 
C     0.7229630    2.8121468    0.7067445 
C     0.3350148    1.6470068    1.2732981 
C     1.6634418    1.6128274   -1.0880637 
C     1.2656822    0.4395787   -0.5235769 
C     0.6059979    0.4628253    0.6674255 
O     0.4255018    4.0108279    1.3625974 
H     0.7530130    4.8395546    0.8780646 
H     0.2915023   -0.4622879    1.1439799 
H     2.2144535    1.6073002   -2.0258638 
H     1.7140700    3.7229038   -0.9348395 
H    -0.1928565    1.6764656    2.2204318 
C     1.5870185   -0.8784062   -1.1954656 
C     3.0348716   -1.3277684   -0.9038224 
H     1.4370218   -0.7922057   -2.2952450 
H     0.8689760   -1.6603352   -0.8573593 
C     3.2553711   -2.8017112   -1.2521241 
O     2.4452434   -3.4220020   -2.1963494 
O     4.2793442   -3.5386883   -0.6593764 
H     4.8493531   -2.9708043   -0.0501804 
N     3.9654808   -0.4408273   -1.6264045 
H     3.2120911   -1.2390064    0.1935581 
H     4.9445421   -0.6270851   -1.3024880 
H     3.9460060   -0.6677652   -2.6513139 
