24
UFF-Energy = 0.0613391
C     1.8780783    2.6312227   -0.1538757 
C     0.5622894    2.9066706   -0.0013628 
C    -0.3572441    1.9271988   -0.1609159 
C     2.2786649    1.3753617   -0.4782308 
C     1.3580760    0.3872432   -0.6544558 
C     0.0358766    0.6686314   -0.4842230 
O     0.1552103    4.1948495    0.3313348 
H     0.0025945    4.7483424   -0.5043728 
H    -0.7139512   -0.1099683   -0.6019973 
H     3.3395859    1.1598200   -0.5819364 
H     2.6049935    3.4220206   -0.0041312 
H    -1.4081235    2.1578730   -0.0211115 
C     1.8023738   -1.0196745   -0.9910195 
C     2.1079789   -1.8360298    0.2805173 
H     2.7085043   -0.9948129   -1.6362429 
H     1.0105635   -1.5204948   -1.5930768 
C     2.2682162   -3.3267426   -0.0214195 
O     1.7072526   -3.8907236   -1.1625636 
O     2.9073832   -4.1577043    0.8902684 
H     2.8816401   -5.1073133    0.5400624 
N     3.2989531   -1.2423729    0.9319014 
H     1.2245993   -1.7825909    0.9600146 
H     3.0451876   -0.9476059    1.9040282 
H     4.0647120   -1.9523012    1.0452526 
