24
UFF-Energy = 0.0759678
C     1.5525745    2.7120223    0.0412915 
C     0.2308410    2.7686815    0.3247968 
C    -0.5464929    1.6754950    0.1495544 
C     2.1042519    1.5576673   -0.4121158 
C     1.3280573    0.4519945   -0.5895255 
C    -0.0022178    0.5172811   -0.3032405 
O    -0.3309957    3.9535270    0.7898753 
H    -0.2832017    4.0004465    1.8017100 
H    -0.6380093   -0.3544211   -0.4382909 
H     3.1684625    1.5259099   -0.6306346 
H     2.1615216    3.5990712    0.1775152 
H    -1.6067432    1.7373123    0.3714302 
C     1.9367545   -0.8431064   -1.0810704 
C     2.1824592   -1.8531523    0.0699346 
H     2.8898420   -0.6524629   -1.6234220 
H     1.2502055   -1.2875244   -1.8383677 
C     2.5823140   -3.2367582   -0.4560496 
O     2.2078476   -3.6251119   -1.7370667 
O     3.2335281   -4.1663801    0.3516932 
H     3.4504155   -3.7654252    1.2524799 
N     3.1840476   -1.3158340    1.0137001 
H     1.2233409   -2.0295786    0.6102438 
H     4.0424654   -1.0036344    0.4977990 
H     2.7951875   -0.4790512    1.5113128 
