24
UFF-Energy = 0.0781176
C     2.1330136    2.5025493   -0.7303293 
C     0.8897299    3.0017778   -0.5427893 
C    -0.1689074    2.1646612   -0.4501892 
C     2.3228903    1.1614759   -0.8222117 
C     1.2615313    0.3123170   -0.7343204 
C     0.0130432    0.8223407   -0.5393547 
O     0.6991918    4.3768342   -0.4493645 
H     0.7892050    4.6852974    0.5123978 
H    -0.8470585    0.1622473   -0.4539628 
H     3.3286781    0.7715395   -0.9563312 
H     2.9716023    3.1862689   -0.8047217 
H    -1.1612459    2.5782364   -0.3042160 
C     1.4706024   -1.1841820   -0.8140226 
C     1.8153259   -1.7805766    0.5635130 
H     2.2795305   -1.4242976   -1.5391417 
H     0.5502141   -1.6676622   -1.2155147 
C     1.6824418   -3.2974284    0.5339064 
O     0.4743773   -3.8845111    0.8778357 
O     2.7123043   -4.1016943    0.0629620 
H     3.4224796   -4.1773632    0.7753474 
N     3.1585548   -1.3247277    0.9717270 
H     1.0631326   -1.4243665    1.3070074 
H     3.3465912   -1.6402076    1.9530844 
H     3.8881380   -1.7630692    0.3592879 
