24
UFF-Energy = 0.0461381
C     1.5227245    2.6359018    0.0855089 
C     0.1708817    2.7299683   -0.0273649 
C    -0.5428212    1.6541378   -0.4303695 
C     2.1519028    1.4692725   -0.2068855 
C     1.4346188    0.3878219   -0.6193880 
C     0.0808814    0.4847282   -0.7234218 
O    -0.5085704    3.9162311    0.2666710 
H     0.0953782    4.6767732    0.5591963 
H    -0.5111485   -0.3701809   -1.0411825 
H     3.2328820    1.4023122   -0.1009729 
H     2.1027292    3.4920995    0.4130862 
H    -1.6207584    1.7424546   -0.5130349 
C     2.1300624   -0.9198712   -0.9266279 
C     2.1352926   -1.8712393    0.2868594 
H     3.1824638   -0.7401961   -1.2457543 
H     1.6295376   -1.4084504   -1.7930961 
C     2.5704554   -3.2687788   -0.1243461 
O     3.5111302   -3.4621840   -1.1313399 
O     2.0315376   -4.3729786    0.5222679 
H     2.4498073   -5.2117544    0.1396237 
N     3.0131674   -1.3149843    1.3340896 
H     1.0960956   -1.9906378    0.6761052 
H     2.5097153   -0.5365638    1.8205510 
H     3.1751957   -2.0439525    2.0717310 
