24
UFF-Energy = 0.0614435
C     2.0359175    2.6609095   -0.5616495 
C     0.7138253    2.9219839   -0.6803705 
C    -0.1689977    1.9040901   -0.7994503 
C     2.4818455    1.3788517   -0.5700657 
C     1.5994580    0.3478884   -0.6947469 
C     0.2689359    0.6192882   -0.8088011 
O     0.2609110    4.2375021   -0.6723785 
H     0.2555040    4.6207662   -1.6111499 
H    -0.4523975   -0.1888134   -0.9054224 
H     3.5468821    1.1860428   -0.4732384 
H     2.7304724    3.4869372   -0.4547644 
H    -1.2277271    2.1265627   -0.8828959 
C     2.0834809   -1.0865278   -0.6975826 
C     1.7891688   -1.8059411    0.6427369 
H     3.1737585   -1.1463412   -0.9162020 
H     1.5788331   -1.6250710   -1.5328424 
C     1.9533646   -3.3090247    0.4761850 
O     0.8446977   -4.1000127    0.2026846 
O     3.2127290   -3.8946550    0.5195330 
H     3.1145908   -4.8900959    0.3630070 
N     2.6069888   -1.2514521    1.7515739 
H     0.7137894   -1.6709485    0.9024604 
H     3.2299705   -1.9881240    2.1668829 
H     3.2542134   -0.4975374    1.4279291 
