24
UFF-Energy = 0.0440819
C     1.9411366    2.5952892    0.5129354 
C     0.6608468    2.8602630    0.8859468 
C    -0.3253250    1.9970477    0.5525010 
C     2.2267997    1.4712768   -0.1929848 
C     1.2341115    0.6023465   -0.5330300 
C    -0.0451937    0.8712589   -0.1517283 
O     0.3318005    4.0089182    1.6110165 
H     1.1250140    4.5996501    1.8366942 
H    -0.8498530    0.1839771   -0.4027860 
H     3.2565698    1.2639180   -0.4803758 
H     2.7389257    3.2799919    0.7813693 
H    -1.3419948    2.2182534    0.8604680 
C     1.5521519   -0.6616799   -1.3070874 
C     1.9238058   -1.8503415   -0.3966872 
H     2.3866246   -0.4705701   -2.0190260 
H     0.6795107   -0.9529011   -1.9327917 
C     3.1781809   -1.5864829    0.4322140 
O     3.2469401   -1.9770389    1.7650517 
O     4.2861890   -0.9789269   -0.1509360 
H     5.0439244   -0.9627961    0.5217840 
N     0.7528095   -2.2322776    0.4154166 
H     2.1875093   -2.7027732   -1.0622434 
H     0.9368854   -3.1743292    0.8362681 
H     0.6680854   -1.5793486    1.2317011 
