24
UFF-Energy = 0.0752894
C     1.3849615    2.6876036    0.1450398 
C     0.0488153    2.6800014    0.3551300 
C    -0.6636878    1.5511781    0.1382333 
C     2.0127134    1.5678261   -0.2974353 
C     1.3011821    0.4281574   -0.5286691 
C    -0.0428603    0.4270545   -0.3012960 
O    -0.5918626    3.8313130    0.8019260 
H    -0.8887228    4.4029658    0.0191814 
H    -0.6257340   -0.4763956   -0.4588342 
H     3.0887447    1.5879539   -0.4541403 
H     1.9460044    3.5946515    0.3432085 
H    -1.7318554    1.5524382    0.3276358 
C     1.9957725   -0.8331072   -1.0101577 
C     2.4566989   -1.7436078    0.1500145 
H     2.8686178   -0.5679585   -1.6485077 
H     1.3065836   -1.4081906   -1.6660704 
C     3.5828700   -1.1111842    0.9714062 
O     4.5091742   -0.2755405    0.3604917 
O     3.8175437   -1.5027370    2.2837265 
H     4.1917871   -2.4393883    2.2878958 
N     1.2793926   -2.1112254    0.9618484 
H     2.9036693   -2.6626536   -0.2924974 
H     0.7613855   -2.8853581    0.4856309 
H     1.5754851   -2.4757727    1.8996694 
