24
UFF-Energy = 0.0653828
C     1.4945022    2.6407994    0.4492592 
C     0.2513235    2.5970981    0.9815412 
C    -0.5247282    1.5040568    0.7996075 
C     1.9637580    1.5934439   -0.2755537 
C     1.1843376    0.4930847   -0.4704188 
C    -0.0627983    0.4527389    0.0758802 
O    -0.2255763    3.6721999    1.7249637 
H    -0.6849483    4.3475209    1.1239814 
H    -0.6961807   -0.4206518   -0.0600178 
H     2.9669714    1.6414918   -0.6912456 
H     2.1102823    3.5180446    0.6148886 
H    -1.5151003    1.4762334    1.2418818 
C     1.7051935   -0.6859574   -1.2613669 
C     2.1670669   -1.8493488   -0.3500330 
H     2.5451575   -0.3807834   -1.9271176 
H     0.8989391   -1.0429482   -1.9416017 
C     2.4790258   -3.0865417   -1.1740726 
O     1.8216042   -4.2847106   -0.9165251 
O     3.3932042   -3.0215970   -2.2211181 
H     3.4811852   -3.9411043   -2.6341802 
N     3.3315010   -1.4500646    0.4600280 
H     1.3346727   -2.1432855    0.3302621 
H     4.1016116   -1.1076250   -0.1631455 
H     3.0683203   -0.6733562    1.1105694 
