24
UFF-Energy = 0.0338668
C     0.3135286    2.3082924    0.1844647 
C    -0.6471365    2.1870659   -0.7606689 
C    -0.6431278    1.1105842   -1.5907022 
C     1.2804083    1.3526016    0.3113620 
C     1.2789724    0.2725811   -0.5149394 
C     0.3179410    0.1595151   -1.4710083 
O    -1.6192542    3.1863994   -0.8539098 
H    -2.3054500    3.0375445   -1.5870745 
H     0.3119806   -0.6921850   -2.1471481 
H     2.0958935    1.4464726    1.0645317 
H     0.2826793    3.1929336    0.8208475 
H    -1.4071193    1.0104492   -2.3538657 
C     2.3628911   -0.7723264   -0.3764052 
C     3.7339694   -0.2683161   -0.9294174 
H     2.0597327   -1.7214972   -0.8733904 
H     2.4565018   -1.0479529    0.7032882 
C     4.8349412   -0.2995647    0.1423005 
O     5.9625777   -1.1117537   -0.0137931 
O     4.6704572    0.4656014    1.3200173 
H     3.7945836    0.9997577    1.4006581 
N     4.0963289   -1.0154714   -2.1494959 
H     3.6800089    0.8140183   -1.1887618 
H     4.2262668   -2.0331484   -1.9299693 
H     3.3332198   -0.9306834   -2.8619434 
