24
UFF-Energy = 0.0437344
C     1.4402411    2.3220827    0.7633963 
C     0.5048999    2.9329831   -0.0120307 
C    -0.0541666    2.2578479   -1.0418737 
C     1.8095861    1.0417788    0.5057488 
C     1.2425269    0.3591589   -0.5271073 
C     0.3109110    0.9773831   -1.3040470 
O     0.1030616    4.2512287    0.2250909 
H     0.5651049    4.6886501    1.0150359 
H    -0.1426226    0.4540560   -2.1427509 
H     2.5621194    0.5680457    1.1317666 
H     1.8961728    2.8566965    1.5898549 
H    -0.7960748    2.7580159   -1.6550120 
C     1.6685365   -1.0614360   -0.8258006 
C     2.9634392   -1.1141741   -1.6625103 
H     0.8652929   -1.6068320   -1.3725596 
H     1.8103552   -1.6099745    0.1327105 
C     3.5331166   -2.5235657   -1.6924756 
O     2.7019279   -3.6373563   -1.6204215 
O     4.9045904   -2.7069565   -1.8086265 
H     5.1002564   -3.6998055   -1.8375704 
N     2.6839590   -0.6175112   -3.0222329 
H     3.7490739   -0.4868813   -1.1788198 
H     2.5905502    0.4246455   -2.9908726 
H     3.5167721   -0.8038557   -3.6330388 
