24
UFF-Energy = 0.0947399
C     1.5814915    2.5859081   -0.4205502 
C     0.2663017    2.8053440   -0.1904335 
C    -0.6002601    1.7668256   -0.1727006 
C     2.0344605    1.3254789   -0.6419659 
C     1.1657162    0.2766959   -0.6388279 
C    -0.1554321    0.5039782   -0.3958602 
O    -0.1930889    4.0976555    0.0412206 
H    -0.4290488    4.5561535   -0.8319563 
H    -0.8625522   -0.3235502   -0.3691009 
H     3.0945241    1.1624533   -0.8187820 
H     2.2660722    3.4271657   -0.4172410 
H    -1.6502822    1.9539306    0.0280698 
C     1.6716419   -1.1327169   -0.8528912 
C     2.1745768   -1.7705063    0.4651780 
H     2.4964638   -1.1176280   -1.5996816 
H     0.8677132   -1.7711363   -1.2889957 
C     1.0656851   -1.8643659    1.5039674 
O    -0.0795711   -2.6115356    1.2546221 
O     1.1432379   -1.1208147    2.6755550 
H     0.9036824   -0.1620209    2.4692993 
N     2.7590785   -3.1040310    0.2050363 
H     2.9469989   -1.1028139    0.9153878 
H     2.7777120   -3.3547418   -0.8118486 
H     3.7464786   -3.1396448    0.5524386 
