24
UFF-Energy = 0.0579007
C     0.6696348    2.3380013    0.3138097 
C    -0.1274547    2.8238528   -0.6657326 
C    -0.2491716    2.1533101   -1.8343230 
C     1.3448601    1.1748945    0.1297884 
C     1.2303933    0.4960221   -1.0455063 
C     0.4226033    0.9894125   -2.0257131 
O    -0.8187569    4.0159701   -0.4738266 
H    -1.7267685    3.8401221   -0.0581455 
H     0.3106927    0.4576545   -2.9674222 
H     1.9715034    0.7881866    0.9301818 
H     0.7611812    2.8883114    1.2438652 
H    -0.8867934    2.5567378   -2.6138654 
C     1.9641980   -0.8115465   -1.2473738 
C     1.1146288   -2.0134280   -0.8010126 
H     2.9183771   -0.8151272   -0.6719248 
H     2.2485390   -0.9190291   -2.3182084 
C     1.7422797   -3.3169270   -1.2760098 
O     0.9603195   -4.2787733   -1.9034174 
O     3.0940296   -3.5668107   -1.0719861 
H     3.3159179   -4.4834805   -1.4394725 
N     0.9569388   -1.9555330    0.6684331 
H     0.1184527   -1.9578552   -1.3017035 
H    -0.0535492   -1.8136608    0.9027367 
H     1.2453544   -2.8568344    1.1219255 
