24
UFF-Energy = 0.0299487
C     0.0689219    2.1340675    0.0228373 
C    -0.5352914    2.2918397   -1.1869114 
C    -0.2385914    1.4437590   -2.1975709 
C     0.9626872    1.1181368    0.2145182 
C     1.2509335    0.2652643   -0.8039950 
C     0.6533034    0.4382899   -2.0134573 
O    -1.4576471    3.3172682   -1.4185902 
H    -1.6321192    3.9309899   -0.6306475 
H     0.8885437   -0.2230740   -2.8444802 
H     1.4992100    0.9856823    1.1808052 
H    -0.1675882    2.8371734    0.8195126 
H    -0.7185352    1.5824400   -3.1611757 
C     2.2594178   -0.8424758   -0.5899472 
C     3.7223353   -0.3073351   -0.5607652 
H     2.1507590   -1.6182682   -1.3831251 
H     2.0151265   -1.3821191    0.3562945 
C     4.4204197   -0.6058334    0.7743881 
O     5.5180047   -1.4704153    0.8211609 
O     3.9239724   -0.0253379    1.9614066 
H     3.1081452    0.5902112    1.8526243 
N     4.4463857   -0.8303003   -1.7382236 
H     3.7271542    0.8080711   -0.5999863 
H     5.3952515   -0.3853565   -1.7926788 
H     4.6171959   -1.8597397   -1.6241665 
