24
UFF-Energy = 0.0622105
C     1.0052051    2.5170029    0.2243596 
C    -0.2907715    2.3003496    0.5458750 
C    -0.8423881    1.0810252    0.3491151 
C     1.7527947    1.5156887   -0.3064204 
C     1.2036752    0.2847126   -0.5101569 
C    -0.1003739    0.0735036   -0.1769573 
O    -1.0535776    3.3278915    1.0906304 
H    -1.5043324    3.8666311    0.3592736 
H    -0.5560138   -0.9029554   -0.3244365 
H     2.7995915    1.6993093   -0.5464986 
H     1.4388255    3.4948782    0.4061398 
H    -1.8799503    0.9176723    0.6217767 
C     2.0382047   -0.8412913   -1.0865967 
C     2.9106560   -1.5695914   -0.0402629 
H     2.6949853   -0.4375633   -1.8909149 
H     1.3811716   -1.5898349   -1.5834228 
C     3.9407819   -0.6488339    0.6163782 
O     5.1859815   -0.5218962    0.0212692 
O     3.6642050    0.1291002    1.7399435 
H     2.7077690    0.0498922    2.0416435 
N     2.0644304   -2.3185638    0.9103349 
H     3.5268143   -2.3119666   -0.6012172 
H     2.6740845   -2.7707154    1.6351916 
H     1.4137512   -1.6787510    1.4200232 
