24
UFF-Energy = 0.0693059
C     1.2161997    3.0008183   -0.3071369 
C     0.0642118    2.8985246   -1.0217546 
C    -0.4137823    1.6759643   -1.3476034 
C     1.8828483    1.8833786    0.0751002 
C     1.4044596    0.6510091   -0.2543527 
C     0.2476426    0.5546113   -0.9652953 
O    -0.6464856    4.0314211   -1.4329107 
H    -0.2272729    4.9104770   -1.1497207 
H    -0.1537078   -0.4191616   -1.2386633 
H     2.8023570    1.9831752    0.6457940 
H     1.6070368    3.9759784   -0.0392701 
H    -1.3327316    1.6069673   -1.9197407 
C     2.1477494   -0.6012307    0.1655148 
C     3.0681482   -1.1849722   -0.9381010 
H     1.4074656   -1.3774943    0.4689209 
H     2.7504848   -0.4007779    1.0798632 
C     2.3144966   -1.5881742   -2.2099161 
O     1.7876917   -2.8715033   -2.2938927 
O     2.0671353   -0.7018634   -3.2588491 
H     2.4698477    0.2020961   -3.0757017 
N     4.2166237   -0.2961290   -1.1980279 
H     3.4689798   -2.1523210   -0.5529068 
H     3.9039844    0.6895562   -1.3523296 
H     4.8360172   -0.2796701   -0.3533319 
