24
UFF-Energy = 0.0295705
C     0.6369158    2.4708961   -0.0926329 
C    -0.3927500    1.9841900    0.6489619 
C    -0.6171546    0.6537449    0.6831256 
C     1.4350464    1.6202677   -0.8048511 
C     1.2301590    0.2720935   -0.7423839 
C     0.1828046   -0.1970833   -0.0057383 
O    -1.2346694    2.8274344    1.3808981 
H    -0.9931002    3.8119562    1.3524521 
H    -0.0247881   -1.2640205    0.0436633 
H     2.2836011    2.0347945   -1.3791316 
H     0.8154333    3.5454784   -0.0948663 
H    -1.4441671    0.2735960    1.2747991 
C     2.0736037   -0.7331600   -1.5219109 
C     3.5509920   -0.3754256   -1.8327280 
H     1.5582027   -0.9568506   -2.4837864 
H     2.0866989   -1.6981308   -0.9611821 
C     4.3255946    0.1566415   -0.6218040 
O     4.7820289   -0.7198420    0.3658565 
O     4.4964265    1.5504133   -0.4805819 
H     4.0678704    2.1199065   -1.2278064 
N     4.1839115   -1.5625070   -2.4406432 
H     3.5877932    0.4509045   -2.5822232 
H     5.1283173   -1.3002679   -2.8178035 
H     4.3571733   -2.2977421   -1.7111062 
