24
UFF-Energy = 0.0854823
C     1.8017792    2.6857705   -0.4464663 
C     0.7846216    2.9724698    0.3984051 
C    -0.0600605    1.9941220    0.7975894 
C     1.9733407    1.4188162   -0.9025291 
C     1.1210619    0.4301618   -0.5125233 
C     0.1047334    0.7248405    0.3453365 
O     0.6136274    4.2715141    0.8657842 
H     0.0233956    4.8043580    0.2363230 
H    -0.5792047   -0.0532988    0.6757647 
H     2.7972662    1.2021363   -1.5770843 
H     2.4786180    3.4779586   -0.7474833 
H    -0.8644440    2.2348175    1.4849517 
C     1.3172310   -0.9886754   -0.9985962 
C     2.0139747   -1.8734824    0.0640758 
H     1.8971224   -1.0020547   -1.9487889 
H     0.3202609   -1.4205352   -1.2487124 
C     1.9889443   -3.3475978   -0.3346829 
O     1.0935297   -4.2012654    0.2987493 
O     2.7787351   -3.8533633   -1.3679627 
H     3.3979963   -3.1504050   -1.7382733 
N     3.3854705   -1.3970101    0.3302886 
H     1.4271112   -1.8308939    1.0124042 
H     3.8752136   -1.1440857   -0.5597410 
H     3.3426705   -0.5239796    0.9086371 
