24
UFF-Energy = 0.0605015
C     1.7244859    2.6317755    0.5453235 
C     0.7800808    3.1399394   -0.2774754 
C     0.1477782    2.3223720   -1.1601685 
C     2.0452358    1.3151582    0.4939337 
C     1.4198891    0.4897879   -0.3921014 
C     0.4627238    1.0034052   -1.2150782 
O     0.4758450    4.5023861   -0.1920792 
H    -0.2274328    4.8130844   -0.8533456 
H    -0.0533552    0.3631296   -1.9267923 
H     2.8034833    0.9304910    1.1699693 
H     2.2216436    3.2922855    1.2467885 
H    -0.6104024    2.7222187   -1.8241497 
C     1.7743355   -0.9853033   -0.4571174 
C     2.7668241   -1.3421203   -1.5965350 
H     0.8398117   -1.5759134   -0.5934059 
H     2.1998892   -1.3227031    0.5137344 
C     2.2239217   -0.9787022   -2.9706139 
O     1.2967696   -1.8162215   -3.5833039 
O     2.5683267    0.2140891   -3.5970128 
H     2.1067022    0.2588916   -4.4942029 
N     4.1083684   -0.7639298   -1.3677992 
H     2.8510310   -2.4538665   -1.6127286 
H     4.1590846   -0.1934501   -0.4942410 
H     4.8158638   -1.5293564   -1.2726489 
