24
UFF-Energy = 0.0530416
C     1.5454265    2.5159424    0.7301067 
C     0.2960583    2.4971461    1.2488704 
C    -0.5535596    1.4931611    0.9317517 
C     1.9519206    1.5263153   -0.1049273 
C     1.1014340    0.5137764   -0.4314230 
C    -0.1537351    0.4990807    0.0981730 
O    -0.1173368    3.5130834    2.1051102 
H     0.1048733    3.2821730    3.0672006 
H    -0.8449339   -0.3049637   -0.1422988 
H     2.9626988    1.5451345   -0.5043758 
H     2.2147174    3.3285534    0.9898607 
H    -1.5546331    1.4930526    1.3499281 
C     1.5576757   -0.6036796   -1.3428727 
C     2.2211491   -1.7460400   -0.5492918 
H     2.2734263   -0.2173541   -2.1037070 
H     0.6881663   -0.9957667   -1.9174289 
C     2.4196285   -2.9726665   -1.4232416 
O     1.9397335   -4.2081683   -1.0076559 
O     3.0912251   -2.8735900   -2.6356138 
H     3.1311412   -3.7903346   -3.0632474 
N     3.4915240   -1.2658343    0.0255084 
H     1.5343002   -2.0626348    0.2713178 
H     3.8910003   -2.0144520    0.6411521 
H     4.1866254   -1.1247163   -0.7475484 
