24
UFF-Energy = 0.0652712
C     0.4347115    2.0864334    0.6403204 
C     0.2048446    2.8672579   -0.4397990 
C     0.5160087    2.4062792   -1.6804107 
C     0.9728313    0.8491586    0.4931423 
C     1.2895575    0.3848284   -0.7467410 
C     1.0544214    1.1700073   -1.8338504 
O    -0.3524546    4.1354332   -0.2467612 
H    -0.4926507    4.6623451   -1.1018461 
H     1.2952142    0.8131018   -2.8326129 
H     1.1452312    0.2363210    1.3740104 
H     0.1808374    2.4651841    1.6246592 
H     0.3333099    3.0252160   -2.5517083 
C     1.8728454   -0.9994553   -0.9219275 
C     0.8150632   -2.0226552   -1.4003987 
H     2.3440419   -1.3558779    0.0220478 
H     2.7002531   -0.9454790   -1.6673558 
C     1.4757321   -3.3377268   -1.7729141 
O     1.8743287   -3.5638384   -3.0827914 
O     1.7709606   -4.2864421   -0.8034230 
H     0.9437263   -4.8440158   -0.6500155 
N    -0.2294571   -2.2194259   -0.3790637 
H     0.3404127   -1.6530819   -2.3390038 
H     0.2096293   -2.4124806    0.5527901 
H    -0.7957367   -1.3435471   -0.2850126 
