24
UFF-Energy = 0.0574682
C     0.6193962    2.5154330   -0.2769092 
C    -0.5266709    2.3356831    0.4192383 
C    -0.9205186    1.0884819    0.7648454 
C     1.3742804    1.4460747   -0.6355415 
C     0.9861424    0.1871310   -0.2888254 
C    -0.1702580    0.0135370    0.4097306 
O    -1.2990253    3.4329996    0.7856314 
H    -1.9899144    3.6372218    0.0714544 
H    -0.5005642   -0.9853576    0.6824140 
H     2.2844101    1.6055259   -1.2104439 
H     0.9238745    3.5208628   -0.5470603 
H    -1.8406372    0.9617665    1.3260451 
C     1.8089863   -1.0101052   -0.7139546 
C     1.2738971   -1.6525150   -2.0040373 
H     1.8196247   -1.7698904    0.0977627 
H     2.8739576   -0.7213147   -0.8722260 
C     1.3118362   -0.6729948   -3.1706487 
O     2.5119255   -0.1050667   -3.5852790 
O     0.1345164   -0.3281059   -3.8212159 
H     0.3513525    0.3232571   -4.5649658 
N     2.0625348   -2.8776824   -2.2514820 
H     0.1972251   -1.9118144   -1.8678320 
H     1.4597089   -3.7191712   -2.0948762 
H     2.3825118   -2.9282871   -3.2500203 
