24
UFF-Energy = 0.0639705
C     1.5688423    2.4274992   -0.5613489 
C     0.4202608    2.7548742    0.0743942 
C    -0.3819513    1.7831726    0.5654571 
C     1.9159861    1.1241882   -0.7155615 
C     1.1111851    0.1390312   -0.2276064 
C    -0.0416257    0.4777973    0.4155482 
O     0.0670434    4.0916159    0.2295382 
H    -0.4678411    4.4133157   -0.5697468 
H    -0.7012294   -0.2929909    0.8072042 
H     2.8391008    0.8765018   -1.2323624 
H     2.2060755    3.2180866   -0.9421116 
H    -1.2979266    2.0588287    1.0772532 
C     1.4867047   -1.3174871   -0.4104051 
C     0.8437801   -1.9646705   -1.6631698 
H     1.1844306   -1.8934315    0.4942764 
H     2.5924835   -1.4217966   -0.4698262 
C    -0.6752993   -2.0134430   -1.5729899 
O    -1.2865943   -3.0350693   -0.8541677 
O    -1.4654964   -1.0049586   -2.1146662 
H    -2.4374526   -1.2302579   -1.9528295 
N     1.3158212   -1.3172098   -2.9007146 
H     1.1584695   -3.0325868   -1.6939755 
H     0.9207617   -0.3482349   -2.9671010 
H     2.3589915   -1.2381624   -2.8930487 
