24
UFF-Energy = 0.0654516
C     1.7326726    2.6062196    0.4698180 
C     0.4066793    2.8482789    0.6427230 
C    -0.4976020    1.9222671    0.2527633 
C     2.1462606    1.4419581   -0.0911438 
C     1.2377526    0.5015511   -0.4765364 
C    -0.0903636    0.7539557   -0.3053314 
O    -0.0540667    4.0388537    1.2139995 
H     0.6851797    4.6711937    1.5016790 
H    -0.8369712    0.0266591   -0.6125103 
H     3.2121826    1.2671701   -0.2196122 
H     2.4663933    3.3416212    0.7816986 
H    -1.5525681    2.1302444    0.3950277 
C     1.6966868   -0.8046241   -1.1018315 
C     2.2623368   -1.8264641   -0.0776356 
H     2.4709198   -0.5795704   -1.8694292 
H     0.8582888   -1.2825639   -1.6564696 
C     3.5571814   -1.3284718    0.5729204 
O     3.5243477   -0.6934620    1.8077026 
O     4.7788980   -1.4070587   -0.0955219 
H     4.7062177   -1.8560315   -0.9951701 
N     1.2274539   -2.2656970    0.8913026 
H     2.5705786   -2.7323586   -0.6458744 
H     1.5186867   -2.0607490    1.8789991 
H     0.3210308   -1.7616087    0.7648527 
