24
UFF-Energy = 1.30805
C     1.8859970    2.5909653    0.2926682 
C     0.5910269    2.9706879    0.3951501 
C    -0.3966228    2.1201290    0.0227176 
C     2.1852177    1.3556554   -0.1766636 
C     1.2094323    0.4973963   -0.5631017 
C    -0.0917572    0.8818846   -0.4499232 
O     0.2732880    4.2366085    0.8763859 
H     0.1660246    4.2196762    1.8846818 
H    -0.8944134    0.2066582   -0.7344997 
H     3.2750953    0.9261673   -0.3175024 
H     2.6731653    3.2779027    0.5831794 
H    -1.4303499    2.4388677    0.1063908 
C     1.5845949   -0.9000599   -1.0419471 
C     2.8558280   -0.9386477   -1.9491245 
H     0.7286015   -1.3312758   -1.6063147 
H     1.7452423   -1.5492397   -0.1522225 
C     4.1617862   -0.6288551   -1.1879947 
O     4.2977231    0.5393593   -0.4418394 
O     5.2562578   -1.4709071   -1.2755723 
H     5.7686783   -1.2375481   -2.1117693 
N     2.9327008   -2.2368759   -2.6396994 
H     2.7681418   -0.1395568   -2.7205896 
H     3.0013385   -3.0082494   -1.9326191 
H     2.0680980   -2.3967790   -3.2080287 
