24
UFF-Energy = 0.0519591
C     1.5317959    2.6603713    0.1863700 
C     0.5061131    3.0966222   -0.5921841 
C    -0.1720943    2.2141734   -1.3602720 
C     1.8729500    1.3469331    0.1917335 
C     1.1921988    0.4569861   -0.5827975 
C     0.1645987    0.8993204   -1.3592042 
O     0.1281014    4.4427680   -0.6210065 
H     0.6857040    5.0418463   -0.0218213 
H    -0.3951448    0.2077810   -1.9832313 
H     2.6941778    1.0120995    0.8209309 
H     2.0811275    3.3604742    0.8064881 
H    -0.9886306    2.5758402   -1.9758508 
C     1.5803634   -1.0066305   -0.5778119 
C     2.9035539   -1.2657172   -1.3412876 
H     0.7735947   -1.6412584   -1.0103599 
H     1.6882132   -1.3355140    0.4815116 
C     3.4220171   -2.6611325   -1.0343329 
O     2.8310976   -3.7798552   -1.6117914 
O     4.4543959   -2.8297942   -0.1218084 
H     4.6569768   -3.8179148   -0.0356547 
N     2.7536316   -1.0111674   -2.7966412 
H     3.6938267   -0.5859795   -0.9467949 
H     2.9313516   -1.8803311   -3.3577312 
H     1.7852400   -0.7097238   -3.0505774 
