24
UFF-Energy = -0.0605829
C     1.7302976    1.5600274    1.0078799 
C     0.7525780    2.4642816    0.7683000 
C     0.0702802    2.4303131   -0.3988400 
C     2.0263434    0.6133277    0.0810765 
C     1.3465790    0.5749618   -1.0990343 
C     0.3615652    1.4882536   -1.3311485 
O     0.4510698    3.4323579    1.7209972 
H    -0.2473090    3.0858736    2.3701396 
H    -0.2146321    1.4539636   -2.2528657 
H     2.8058293   -0.1145265    0.2920626 
H     2.2701043    1.6009034    1.9476848 
H    -0.7159111    3.1563765   -0.5760202 
C     1.6619050   -0.4951774   -2.1233879 
C     0.8718378   -1.7957196   -1.8746153 
H     2.7518291   -0.7143775   -2.0928852 
H     1.4596621   -0.1278550   -3.1537117 
C    -0.6201243   -1.5919788   -2.1442445 
O    -1.4070465   -0.9406918   -1.2107156 
O    -1.2096275   -1.9792997   -3.3374255 
H    -0.5673113   -2.6376111   -3.7556784 
N     1.4473303   -2.8527516   -2.7240879 
H     0.9647053   -2.0944420   -0.8036567 
H     2.4097443   -3.0886773   -2.3706581 
H     0.8832419   -3.7217838   -2.5884015 
