24
UFF-Energy = 0.0460471
C     1.2587875    2.2195676    0.4329594 
C     0.7232487    2.9825832   -0.5571252 
C     0.5382104    2.4492867   -1.7859856 
C     1.6083213    0.9313073    0.1879415 
C     1.4313105    0.3962946   -1.0514097 
C     0.8851908    1.1614431   -2.0365746 
O     0.3520845    4.3131955   -0.3389945 
H     0.5205146    4.6386694    0.6067874 
H     0.7210405    0.7487011   -3.0289130 
H     2.0219846    0.3273851    0.9926847 
H     1.4043499    2.6359311    1.4238696 
H     0.1054166    3.0671974   -2.5652087 
C     1.7982903   -1.0467812   -1.3205664 
C     0.6166380   -1.9900578   -1.0401309 
H     2.6617766   -1.3506808   -0.6856659 
H     2.1347389   -1.1549407   -2.3765757 
C     0.8952364   -3.3686847   -1.6184034 
O     1.8438295   -4.2046089   -1.0398879 
O     0.2393786   -3.7793706   -2.7709140 
H     0.5537431   -4.7110603   -3.0123145 
N     0.3683893   -2.0105400    0.4183334 
H    -0.2852077   -1.6190082   -1.5843063 
H    -0.5791479   -1.6113493    0.6160808 
H     0.3679000   -2.9891796    0.7979238 
