24
UFF-Energy = 1.28032
C     1.5011761    2.5171207    0.2709641 
C     0.2035979    2.5124111    0.6562130 
C    -0.5444667    1.3917905    0.5056896 
C     2.0407994    1.3994360   -0.2724764 
C     1.3010469    0.2776912   -0.4464474 
C     0.0015459    0.2723549   -0.0405914 
O    -0.3601225    3.6544943    1.2158726 
H    -0.7519347    4.2508398    0.4953069 
H    -0.6068571   -0.6225458   -0.1442101 
H     3.1500126    1.2924480   -0.6586893 
H     2.0987115    3.4121077    0.4038169 
H    -1.5788421    1.3965615    0.8333420 
C     1.9628533   -0.9730307   -1.0103478 
C     2.9386204   -0.7012539   -2.1899382 
H     1.1777525   -1.6746753   -1.3719284 
H     2.5066306   -1.4933560   -0.1916651 
C     4.2298070    0.0422546   -1.7771340 
O     4.1881621    1.2078578   -1.0128794 
O     5.4667630   -0.4115666   -2.2025936 
H     6.1788107    0.2219174   -1.8610820 
N     3.2183173   -1.9883746   -2.8501147 
H     2.4233143   -0.0347464   -2.9199961 
H     3.7068471   -1.7939450   -3.7569086 
H     3.9156985   -2.5240973   -2.2773109 
