24
UFF-Energy = 0.0723553
C     1.3549324    1.7889258    1.0668907 
C     0.8135522    2.7328092    0.2638356 
C     0.5903446    2.4518308   -1.0474515 
C     1.6757725    0.5664420    0.5724444 
C     1.4564790    0.2804072   -0.7404754 
C     0.9093678    1.2305923   -1.5478518 
O     0.4957959    3.9798362    0.8105641 
H     0.0939695    4.6357361    0.1497561 
H     0.7255170    1.0188024   -2.5982997 
H     2.1062845   -0.1791029    1.2364548 
H     1.5272833    2.0248594    2.1118640 
H     0.1558784    3.2044596   -1.6962742 
C     1.7989342   -1.0848039   -1.2953542 
C     0.5487306   -1.9802872   -1.4712311 
H     2.5369273   -1.6056035   -0.6420923 
H     2.3116815   -0.9519856   -2.2747319 
C     0.8928677   -3.2234010   -2.2728415 
O     1.7180189   -4.2006551   -1.7323734 
O     0.4845945   -3.3390943   -3.5952940 
H     1.0420539   -2.7285928   -4.1725233 
N    -0.0260946   -2.3347874   -0.1598717 
H    -0.2250137   -1.4535171   -2.0768683 
H     0.6749241   -2.8718085    0.4073723 
H    -0.2910481   -1.4756817    0.3754130 
