24
UFF-Energy = 0.0618589
C     0.4516414    2.2464628    0.5731605 
C     0.1262111    2.7608262   -0.6428509 
C     0.3795046    2.0439878   -1.7613533 
C     1.0263429    1.0203826    0.6633859 
C     1.2770831    0.2956977   -0.4619159 
C     0.9537748    0.8171738   -1.6771270 
O    -0.4658301    4.0213304   -0.7715218 
H    -0.6249053    4.4951844    0.1111051 
H     1.1579252    0.2596322   -2.5880434 
H     1.2851938    0.6231943    1.6422026 
H     0.2547589    2.8148419    1.4757785 
H     0.1180862    2.4676144   -2.7249665 
C     1.9321060   -1.0645796   -0.3600432 
C     3.4612208   -0.9589349   -0.1791419 
H     1.7103445   -1.6743008   -1.2650359 
H     1.4794101   -1.6133268    0.4985011 
C     4.0286423   -2.2923775    0.3065752 
O     4.1775685   -2.5033840    1.6706319 
O     4.3218036   -3.3330922   -0.5712982 
H     4.1824673   -3.0346613   -1.5256709 
N     4.0699552   -0.5232040   -1.4515163 
H     3.6953862   -0.2248930    0.6303234 
H     3.7761798    0.4628615   -1.6546843 
H     5.1116321   -0.4739168   -1.3338573 
