24
UFF-Energy = 0.0783907
C     1.9160600    2.5746215    0.4304795 
C     0.8587500    3.1221149   -0.2122960 
C     0.0491436    2.3449878   -0.9676779 
C     2.1628991    1.2437722    0.3270921 
C     1.3450829    0.4525742   -0.4220281 
C     0.2888315    1.0132804   -1.0752735 
O     0.6111563    4.4869184   -0.1068389 
H     0.0138430    4.6827660    0.6890226 
H    -0.3628218    0.4012231   -1.6950430 
H     3.0193949    0.8180451    0.8437906 
H     2.5647585    3.2128009    1.0207833 
H    -0.7863596    2.7990331   -1.4902812 
C     1.6312757   -1.0271665   -0.5565261 
C     2.6689945   -1.3177295   -1.6570304 
H     0.6947200   -1.5854850   -0.7886115 
H     1.9907873   -1.4194687    0.4216657 
C     3.1080388   -2.7820457   -1.5767728 
O     2.2992530   -3.7766261   -2.1125489 
O     4.2762244   -3.1573319   -0.9110474 
H     4.7773880   -2.3676170   -0.5332527 
N     2.0799686   -0.9913925   -2.9682230 
H     3.5716932   -0.6854485   -1.4929565 
H     2.1163694    0.0451898   -3.1123651 
H     2.6635637   -1.4078920   -3.7336980 
