24
UFF-Energy = 0.0518344
C     2.4397838    2.3335968    0.5169186 
C     1.2384681    2.9675406    0.4585099 
C     0.1567910    2.3074521   -0.0135540 
C     2.5522418    1.0459418    0.1037951 
C     1.4638867    0.3798380   -0.3730239 
C     0.2628866    1.0194932   -0.4282915 
O     1.0874440    4.2933659    0.8773082 
H     1.9440100    4.7217897    1.2113888 
H    -0.6201460    0.5094693   -0.8042334 
H     3.5199031    0.5527538    0.1570021 
H     3.3130847    2.8548970    0.8938422 
H    -0.7952685    2.8254717   -0.0550684 
C     1.5949902   -1.0553007   -0.8378478 
C     2.3318123   -1.1688103   -2.1955943 
H     0.5995773   -1.5482017   -0.9216757 
H     2.1490973   -1.6275950   -0.0590440 
C     2.7170293   -2.6167329   -2.4581453 
O     4.0417941   -3.0182466   -2.3368213 
O     1.7415480   -3.5628163   -2.7492447 
H     2.1866551   -4.4621503   -2.8825680 
N     1.5364603   -0.5757854   -3.2994613 
H     3.3000767   -0.6209757   -2.1348876 
H     1.3021638   -1.2954991   -4.0265784 
H     0.6164204   -0.2013891   -2.9735822 
