24
UFF-Energy = 0.0552533
C     1.4804670    2.3532599    0.7460810 
C     0.5676583    2.9687392   -0.0405629 
C    -0.0057129    2.2969725   -1.0652633 
C     1.8172106    1.0584741    0.5159422 
C     1.2354612    0.3720189   -0.5069869 
C     0.3252000    1.0019452   -1.3014774 
O     0.2272486    4.2965610    0.1967120 
H    -0.5452801    4.3571676    0.8508727 
H    -0.1353940    0.4765966   -2.1352399 
H     2.5563621    0.5782422    1.1526102 
H     1.9423215    2.9089937    1.5550522 
H    -0.7252079    2.8064676   -1.6977200 
C     1.6253161   -1.0642362   -0.7780892 
C     2.9195085   -1.1658686   -1.6114000 
H     0.8090114   -1.5988708   -1.3159523 
H     1.7522839   -1.5978679    0.1908098 
C     3.4531688   -2.5895314   -1.6129321 
O     2.5937710   -3.6802839   -1.5212894 
O     4.8197297   -2.8099989   -1.7221658 
H     4.9901011   -3.8078591   -1.7318232 
N     2.6545957   -0.6890237   -2.9811052 
H     3.7201790   -0.5493589   -1.1385550 
H     2.5856550    0.3555658   -2.9699048 
H     3.4843905   -0.9060710   -3.5857971 
