24
UFF-Energy = 0.0630988
C     1.4523979    2.7002336    0.0570355 
C     0.3717225    3.0343712   -0.6849417 
C    -0.3005940    2.0806759   -1.3692263 
C     1.8604108    1.4074582    0.1240282 
C     1.1866821    0.4399439   -0.5593147 
C     0.1013437    0.7854612   -1.3076525 
O    -0.0444387    4.3603525   -0.7504781 
H    -0.7013302    4.5673766   -0.0062127 
H    -0.4507001    0.0315398   -1.8626732 
H     2.7295468    1.1527298    0.7255157 
H     1.9882401    3.4771280    0.5914240 
H    -1.1595380    2.3639272   -1.9685536 
C     1.6475923   -1.0005305   -0.4879262 
C     2.9447795   -1.2435096   -1.2997512 
H     0.8541923   -1.6974904   -0.8420766 
H     1.8216868   -1.2585860    0.5820672 
C     3.5426029   -2.5940276   -0.9410967 
O     2.9805495   -3.7696872   -1.4270413 
O     4.6215362   -2.6631785   -0.0704034 
H     4.8752531   -3.6344970    0.0600048 
N     2.7157571   -1.0808407   -2.7579339 
H     3.7190845   -0.5071266   -0.9829833 
H     2.9145373   -1.9702034   -3.2787607 
H     1.7222603   -0.8435133   -2.9812124 
