24
UFF-Energy = 0.0730229
C     1.7067957    2.5873182   -0.2580684 
C     0.4062426    2.7710501   -0.6096728 
C    -0.3359545    1.7112081   -1.0033735 
C     2.2569975    1.3474039   -0.3050427 
C     1.5132948    0.2812466   -0.7098280 
C     0.2088578    0.4688418   -1.0512856 
O    -0.1920455    4.0344061   -0.5723166 
H     0.4289364    4.7765101   -0.2682815 
H    -0.4065125   -0.3704955   -1.3648075 
H     3.2943013    1.2086373   -0.0070493 
H     2.3080199    3.4301343    0.0657060 
H    -1.3731052    1.8718580   -1.2771911 
C     2.1195412   -1.1047283   -0.7400602 
C     1.9938383   -1.8048765    0.6239474 
H     3.1973786   -1.0466778   -1.0185834 
H     1.6271716   -1.7105873   -1.5335773 
C     2.3326545   -3.2842473    0.4950805 
O     3.6418258   -3.6938006    0.2834224 
O     1.3236009   -4.2370160    0.5284921 
H     0.8386092   -4.2407933   -0.3564421 
N     2.8589925   -1.0963133    1.5938210 
H     0.9282076   -1.7747314    0.9570510 
H     2.2639921   -0.6313319    2.3193538 
H     3.4894205   -1.7619360    2.1066058 
