24
UFF-Energy = 0.0655958
C    -0.0656121    2.3394064   -0.5991203 
C    -1.2155725    1.9006119   -0.0210891 
C    -1.3178080    0.6094022    0.3677410 
C     0.9746527    1.4874446   -0.7822560 
C     0.8749529    0.1885958   -0.3859008 
C    -0.2818032   -0.2475150    0.1849160 
O    -2.3067914    2.7506576    0.1826968 
H    -2.1622602    3.7021215   -0.1377940 
H    -0.3849551   -1.2837191    0.4965500 
H     1.8844875    1.8516372   -1.2569213 
H     0.0217186    3.3715957   -0.9197764 
H    -2.2415072    0.2686699    0.8244614 
C     2.0221666   -0.7714460   -0.6183631 
C     1.8684749   -1.5439247   -1.9406195 
H     2.0885828   -1.4900006    0.2273651 
H     2.9953645   -0.2266462   -0.6310150 
C     1.9008402   -0.6026219   -3.1411872 
O     2.9248439    0.3229403   -3.2927439 
O     0.8918119   -0.6519160   -4.0924477 
H     0.0808203   -0.1711714   -3.7329660 
N     2.9392385   -2.5529720   -2.0090633 
H     0.8772589   -2.0545558   -1.9590263 
H     2.6941133   -3.3587385   -1.3878455 
H     2.9949402   -2.9400377   -2.9836014 
