24
UFF-Energy = 0.0710283
C     1.4312862    2.3694722    0.6647869 
C     0.2195762    2.7348256    0.1868522 
C    -0.4745860    1.8928048   -0.6124395 
C     1.9510865    1.1557324    0.3500554 
C     1.2569540    0.3006752   -0.4521451 
C     0.0383305    0.6772612   -0.9319089 
O    -0.3095520    3.9802531    0.5105000 
H    -0.8506570    3.9280102    1.3665325 
H    -0.5334496    0.0123405   -1.5744043 
H     2.9256317    0.8755326    0.7423955 
H     1.9808507    3.0590062    1.2963437 
H    -1.4412119    2.2018564   -0.9962166 
C     1.8426886   -1.0483938   -0.8099621 
C     3.0015135   -0.9305351   -1.8325208 
H     1.0629813   -1.7334904   -1.2156392 
H     2.2109184   -1.5310304    0.1241090 
C     3.7585329   -2.2411581   -1.9363603 
O     3.0959727   -3.4235869   -2.2525493 
O     5.1204730   -2.2773828   -1.6610833 
H     5.4549186   -3.2227354   -1.7971509 
N     2.5100105   -0.5096323   -3.1627234 
H     3.7511547   -0.1972148   -1.4505387 
H     1.4881812   -0.2870834   -3.1662292 
H     3.0072403    0.3623372   -3.4612276 
