24
UFF-Energy = 0.0898679
C     1.8191958    2.5598547    0.3643034 
C     0.5894191    2.9893169   -0.0009352 
C    -0.2905882    2.1265501   -0.5587011 
C     2.1772814    1.2660048    0.1641438 
C     1.2990839    0.3923917   -0.4032668 
C     0.0596925    0.8308957   -0.7619468 
O     0.2258158    4.3164043    0.2055670 
H     0.4766932    4.8859044   -0.5949972 
H    -0.6612299    0.1507595   -1.2084349 
H     3.1682284    0.9349697    0.4653998 
H     2.5096266    3.2596979    0.8224056 
H    -1.2780473    2.4808651   -0.8355308 
C     1.7022021   -1.0488575   -0.6291693 
C     2.6966793   -1.2014343   -1.8075601 
H     0.8138403   -1.6964069   -0.8111067 
H     2.1642956   -1.4375039    0.3074506 
C     3.2995197   -2.5946766   -1.8161052 
O     4.6771621   -2.7593250   -1.7677106 
O     2.4836937   -3.7171031   -1.8569746 
H     2.2627500   -3.9026925   -2.8246439 
N     2.0478568   -0.9125994   -3.1056479 
H     3.5579856   -0.5101620   -1.6457616 
H     1.0559266   -0.5972378   -3.0005172 
H     2.5563608   -0.1312618   -3.5837056 
