24
UFF-Energy = -0.107763
C     1.2931867    2.7087416    0.0316117 
C    -0.0079544    2.6006532    0.3850034 
C    -0.6527658    1.4204734    0.2405211 
C     1.9587726    1.6323491   -0.4588987 
C     1.3187604    0.4377827   -0.5985667 
C     0.0061813    0.3391337   -0.2485855 
O    -0.6854440    3.7057071    0.8913590 
H    -0.5846083    3.7515753    1.8993492 
H    -0.5223701   -0.6042572   -0.3587610 
H     3.0041334    1.7348294   -0.7371851 
H     1.7935785    3.6638026    0.1430645 
H    -1.6988309    1.3499870    0.5180568 
C     2.0527204   -0.7721677   -1.1336989 
C     2.3771869   -1.8092099   -0.0200474 
H     2.9988490   -0.4854496   -1.6461482 
H     1.4242077   -1.2420890   -1.9251926 
C     2.8397359   -3.1450338   -0.6025125 
O     2.6269387   -3.4340073   -1.9414456 
O     3.3035250   -4.1633255    0.2100492 
H     3.6991968   -3.6860827    1.0133123 
N     3.3052423   -1.2346061    0.9812742 
H     1.4398724   -2.0831040    0.5086679 
H     4.1242090   -1.8469748    1.1603970 
H     3.6892828   -0.2989294    0.6915597 
