24
UFF-Energy = 0.0877562
C     1.4381589    2.5367955   -0.7788753 
C     0.1574353    2.6995948   -0.3727955 
C    -0.5987113    1.6185683   -0.0711279 
C     1.9697961    1.2928925   -0.8754035 
C     1.2202474    0.1971696   -0.5607603 
C    -0.0734636    0.3718092   -0.1647818 
O    -0.3867260    3.9776743   -0.2784023 
H    -0.2349453    4.3658995    0.6462996 
H    -0.7011812   -0.4821277    0.0729737 
H     2.9976370    1.1859290   -1.2128119 
H     2.0340654    3.4081557   -1.0302141 
H    -1.6289142    1.7559395    0.2413624 
C     1.8132209   -1.1997432   -0.6581379 
C     2.3031022   -1.7612255    0.7042456 
H     2.6549053   -1.2132394   -1.3866763 
H     1.0512089   -1.8910110   -1.0816510 
C     3.4837406   -0.9596301    1.2670370 
O     4.3031754   -0.2351501    0.4023452 
O     3.8456757   -1.0012299    2.6197707 
H     3.3132286   -1.6545853    3.1754768 
N     1.1838039   -1.8378146    1.6569461 
H     2.6686248   -2.7961910    0.5144933 
H     0.3850054   -2.3322795    1.1966250 
H     1.4518798   -2.4738664    2.4427425 
