24
UFF-Energy = 0.0676221
C     1.1343909    2.2747463    0.8437386 
C     0.3474676    2.9036613   -0.0698309 
C    -0.0173802    2.2534971   -1.1981317 
C     1.5496796    1.0012938    0.6248057 
C     1.1750722    0.3426096   -0.5067442 
C     0.3940708    0.9798456   -1.4216484 
O    -0.0963942    4.2156604    0.1239511 
H     0.2161708    4.6334198    0.9937316 
H     0.1021427    0.4766835   -2.3403296 
H     2.1844664    0.5137126    1.3606270 
H     1.4356970    2.7895126    1.7496771 
H    -0.6400554    2.7683392   -1.9215632 
C     1.6563248   -1.0692413   -0.7631716 
C     3.0018466   -1.0837937   -1.5126990 
H     0.9002144   -1.6324060   -1.3563001 
H     1.7528303   -1.6109665    0.2049330 
C     3.6218780   -2.4859937   -1.5267198 
O     2.8151291   -3.6096955   -1.3862147 
O     4.9892412   -2.6657969   -1.7337302 
H     5.4704167   -1.7878203   -1.8631263 
N     2.7860437   -0.5441898   -2.8716013 
H     3.7137180   -0.4336955   -0.9517788 
H     3.3587272    0.3232293   -2.9995523 
H     3.0889018   -1.2212979   -3.6139211 
