24
UFF-Energy = 0.0841752
C     1.7177346    2.5903499    0.5089911 
C     0.3820738    2.7734791    0.6203082 
C    -0.4706133    1.8246224    0.1711828 
C     2.2061589    1.4635286   -0.0695201 
C     1.3540941    0.5080527   -0.5372480 
C     0.0102851    0.6932507   -0.4041605 
O    -0.1152980    3.9341500    1.2047838 
H    -0.2405046    4.6611514    0.5095862 
H    -0.6855043   -0.0689997   -0.7448626 
H     3.2813655    1.3225529   -0.1358257 
H     2.3893915    3.3476444    0.8981546 
H    -1.5391354    1.9732734    0.2855415 
C     1.8918726   -0.7620756   -1.1699737 
C     2.1706973   -1.8711847   -0.1360652 
H     2.8167949   -0.5380647   -1.7459060 
H     1.1572195   -1.1466705   -1.9116190 
C     3.3407535   -1.5152261    0.7753082 
O     3.1543135   -0.7574200    1.9233196 
O     4.6297508   -1.8946337    0.4255895 
H     4.9802322   -1.2731471   -0.2872453 
N     0.9199034   -2.1750535    0.5917090 
H     2.5120016   -2.7785531   -0.6882502 
H     0.5094075   -3.0678240    0.2318804 
H     1.1027044   -2.3173997    1.6158134 
