24
UFF-Energy = 0.0556378
C     0.2850543    2.1822391    0.6295922 
C    -0.3008072    2.7753882   -0.4353851 
C    -0.1169214    2.2566254   -1.6786035 
C     1.0535013    1.0758060    0.4644813 
C     1.2434661    0.5547611   -0.7787607 
C     0.6504753    1.1503748   -1.8498021 
O    -1.0860688    3.9133345   -0.2241272 
H    -1.4911424    4.3018869   -1.0686883 
H     0.7873784    0.7448601   -2.8494646 
H     1.5112908    0.6113471    1.3339992 
H     0.1294409    2.6044360    1.6166824 
H    -0.5842526    2.7252820   -2.5373602 
C     2.0848460   -0.6874133   -0.9699937 
C     1.2189642   -1.9569967   -1.1603542 
H     2.7811537   -0.8313670   -0.1123850 
H     2.7343297   -0.5410622   -1.8635050 
C     2.0711672   -3.1305232   -1.6054262 
O     3.0064955   -3.6938674   -0.7419373 
O     1.9710809   -3.6047288   -2.9082154 
H     2.6081549   -4.3822010   -3.0251327 
N     0.4781760   -2.2756535    0.0738420 
H     0.4936704   -1.7971136   -1.9919772 
H     1.1422274   -2.3669434    0.8801089 
H    -0.1960127   -1.5065811    0.2965268 
