24
UFF-Energy = 0.0537294
C     2.4573467    2.7286609   -0.0864410 
C     1.3220363    3.3361988   -0.5234436 
C     0.2642693    2.5832167   -0.9016835 
C     2.5278249    1.3746530   -0.0297233 
C     1.4622469    0.6159212   -0.4071529 
C     0.3289919    1.2285924   -0.8474371 
O     1.2160931    4.7289305   -0.5951599 
H     2.0498161    5.2223756   -0.2947170 
H    -0.5309705    0.6424381   -1.1610305 
H     3.4432630    0.9027378    0.3193274 
H     3.3116499    3.3239139    0.2174186 
H    -0.6343327    3.0809171   -1.2497810 
C     1.5490513   -0.8932822   -0.3578660 
C     2.3643115   -1.4760392   -1.5380809 
H     0.5339376   -1.3525791   -0.3447790 
H     2.0234455   -1.1907768    0.6048813 
C     2.6081178   -2.9627871   -1.3406666 
O     3.9056415   -3.4603167   -1.2850841 
O     1.5360739   -3.8330470   -1.1686057 
H     1.8937011   -4.7744428   -1.0698369 
N     1.6853203   -1.2208739   -2.8205110 
H     3.3729375   -1.0028921   -1.5622425 
H     0.7105920   -1.6054527   -2.7923921 
H     1.6255854   -0.1910424   -2.9970653 
