24
UFF-Energy = 3.83094
C     0.7493663    2.1052955    0.8814172 
C    -0.5895174    1.9065566    0.9434547 
C    -1.1105587    0.8634755    0.2521677 
C     1.5867894    1.2620332    0.1539289 
C     1.0201117    0.2390781   -0.5377410 
C    -0.3216282    0.0460058   -0.4760103 
O    -1.4295515    2.7801904    1.6979663 
H    -2.3836785    2.4762046    1.6789423 
H    -0.7744984   -0.7830726   -1.0021745 
H     4.5896397    2.1648440   -0.1162177 
H     1.1876531    2.9426958    1.4090411 
H    -2.1767407    0.6739893    0.2771390 
C     1.8976989   -0.7532519   -1.2489438 
C     2.9762568   -1.2919984   -0.2775093 
H     2.3683082   -0.2740568   -2.1356579 
H     1.3012379   -1.5991723   -1.6063544 
C     4.0136279   -0.2084627   -0.0296854 
O     5.3087423   -0.3137693   -0.5620861 
O     3.7122805    0.9482816    0.7042565 
H     3.1304871    2.0272177   -0.2119842 
N     2.3866972   -1.7970013    0.9911824 
H     3.5125001   -2.1129572   -0.7749749 
H     2.3375074   -0.8864677    1.5454111 
H     1.3648591   -1.8842885    0.8445375 
