24
UFF-Energy = 0.0729033
C     1.9671927    2.9632229   -0.9182934 
C     1.0691912    3.1080336   -1.9199881 
C     0.2163715    2.1002553   -2.2156664 
C     2.0180806    1.8055669   -0.2099264 
C     1.1619327    0.7873969   -0.5022226 
C     0.2639438    0.9388975   -1.5145787 
O     1.0199655    4.2955291   -2.6436257 
H     1.6522995    4.2569683   -3.4360311 
H    -0.4198174    0.1336295   -1.7699451 
H     2.7595079    1.6881048    0.5804199 
H     2.6442764    3.7812195   -0.6961604 
H    -0.5015553    2.2303572   -3.0184593 
C     1.2421076   -0.5156820    0.2616496 
C     2.2746012   -1.4829845   -0.3570328 
H     0.2410908   -1.0016881    0.2822922 
H     1.4996748   -0.3214523    1.3274905 
C     3.6801579   -0.8803691   -0.3681483 
O     4.2583552   -0.5260273   -1.5805736 
O     4.3710753   -0.6048345    0.8120176 
H     3.8941963   -1.0054711    1.6082327 
N     2.2307294   -2.7499463    0.3930090 
H     2.0100513   -1.6664959   -1.4260494 
H     1.3040826   -3.2130596    0.2372980 
H     2.9502925   -3.4071559    0.0053017 
