24
UFF-Energy = 0.0649324
C     2.3299600    2.7115062    0.1260265 
C     1.2120854    3.3361997   -0.3100181 
C     0.1637672    2.6108392   -0.7623320 
C     2.4044116    1.3560391    0.1080417 
C     1.3531212    0.6171757   -0.3443636 
C     0.2320734    1.2554549   -0.7853075 
O     1.1390450    4.7248470   -0.2885454 
H     1.5049702    5.1136376   -1.1510560 
H    -0.6122678    0.6861187   -1.1670779 
H     3.3132495    0.8631057    0.4424677 
H     3.1624639    3.3069323    0.4852987 
H    -0.7276364    3.1229803   -1.1093644 
C     1.4420388   -0.8964564   -0.3881825 
C     2.2557817   -1.4037435   -1.5958414 
H     0.4217651   -1.3406742   -0.4264230 
H     1.9034799   -1.2689780    0.5518518 
C     1.6711487   -0.8998961   -2.9151095 
O     2.4675874   -0.2797771   -3.8734722 
O     0.3248103   -1.1068430   -3.1944284 
H     0.1237400   -0.7341537   -4.1136673 
N     3.6753092   -1.0452510   -1.4015165 
H     2.1569694   -2.5127083   -1.6409383 
H     4.0977976   -1.6992978   -0.7017969 
H     4.2020307   -1.2024384   -2.2959318 
