24
UFF-Energy = -0.0951429
C     1.5820444    2.5156208    0.9056573 
C     0.8579473    3.2216266    0.0089978 
C     0.3688232    2.6126250   -1.0943195 
C     1.8113171    1.1935854    0.7078869 
C     1.3215702    0.5673520   -0.4018445 
C     0.5930269    1.2896003   -1.2996743 
O     0.6165129    4.5756974    0.2214591 
H    -0.2220911    4.7056962    0.7758284 
H     0.1825680    0.8203799   -2.1869197 
H     2.3942827    0.6446232    1.4424898 
H     1.9791953    3.0187266    1.7791522 
H    -0.2014443    3.1918464   -1.8125831 
C     1.5741139   -0.9174523   -0.6160830 
C     2.6397938   -1.2428338   -1.7096780 
H     0.6085343   -1.4113907   -0.8677680 
H     1.9035808   -1.3859010    0.3375951 
C     2.1191320   -1.0434412   -3.1417485 
O     0.7682459   -1.2301013   -3.3933995 
O     2.9423990   -0.9187930   -4.2497229 
H     3.8676998   -0.7224759   -3.8945645 
N     3.9462828   -0.6203355   -1.3903299 
H     2.8059437   -2.3398671   -1.6787427 
H     4.4087742   -0.1735665   -2.2019262 
H     3.8879822    0.1047193   -0.6318243 
