24
UFF-Energy = 0.0675971
C     2.5076465    2.3286177   -0.3418318 
C     1.3581348    3.0067618   -0.0805119 
C     0.1793722    2.3438706   -0.0679162 
C     2.4713478    0.9952619   -0.5926421 
C     1.2835532    0.3297842   -0.5925945 
C     0.1369363    1.0116543   -0.3208453 
O     1.3606781    4.3816696    0.1777685 
H     2.2833368    4.8026458    0.1711758 
H    -0.8192264    0.4939535   -0.2924268 
H     3.3993411    0.4651692   -0.7905507 
H     3.4583042    2.8506593   -0.3473390 
H    -0.7290932    2.8930023    0.1536257 
C     1.2434977   -1.1617792   -0.8447340 
C     1.4209814   -1.9644348    0.4657436 
H     2.0473851   -1.4361772   -1.5642400 
H     0.2860305   -1.4383020   -1.3400132 
C     0.2946956   -1.7110650    1.4681171 
O     0.5823074   -1.0461362    2.6536916 
O    -1.0285602   -2.0701287    1.2071124 
H    -1.1107384   -2.5762531    0.3407756 
N     1.5709855   -3.3983922    0.1560222 
H     2.3443323   -1.6126028    0.9867652 
H     0.8050848   -3.7273285   -0.4784866 
H     2.4762459   -3.5586415   -0.3462042 
