24
UFF-Energy = 0.0762059
C     1.5381271    2.5703673    0.4572221 
C     0.2030677    2.6609172    0.6564804 
C    -0.6129742    1.6667964    0.2368182 
C     2.0631945    1.4811891   -0.1590925 
C     1.2479743    0.4776930   -0.5875864 
C    -0.0951132    0.5735046   -0.3792480 
O    -0.3319625    3.7790228    1.2885642 
H    -0.3606053    3.6428194    2.2930859 
H    -0.7630333   -0.2205952   -0.7042707 
H     3.1387677    1.4140309   -0.3009093 
H     2.1800439    3.3761689    0.7956017 
H    -1.6823409    1.7546989    0.3978352 
C     1.8311215   -0.7487215   -1.2534500 
C     2.2317046   -1.8177238   -0.2165031 
H     2.7162612   -0.4707681   -1.8678551 
H     1.0923449   -1.1733112   -1.9714509 
C     2.4866170   -3.1625269   -0.8785943 
O     1.9939801   -4.3211337   -0.2978615 
O     3.2289083   -3.2537100   -2.0488522 
H     4.2086152   -3.1642346   -1.8256209 
N     3.3967514   -1.3414081    0.5524325 
H     1.3723365   -1.9875789    0.4760408 
H     3.6047130   -2.0260768    1.3196854 
H     4.2436665   -1.3085816   -0.0628845 
