13
Energy =
C    -3.9096499    1.7474309    0.2701787 
C    -2.5120536    2.2382276    0.6295935 
C    -4.6652838    2.7563348   -0.6052439 
H    -4.6894511    3.7578606   -0.1235404 
H    -5.7088557    2.4180851   -0.7767062 
H    -4.1579511    2.8497197   -1.5923057 
N    -3.8677948    0.4633716   -0.4450493 
H    -4.4457089    1.6286154    1.2423656 
H    -3.3419192   -0.2350665    0.1339064 
H    -4.8407564    0.0871820   -0.5388787 
O    -1.7214475    2.9058783   -0.3016609 
O    -2.0099235    2.0052257    1.9043996 
H    -1.0696318    2.3755314    1.9571538 
