13
Energy =
C    -3.8960151    1.7301974    0.2534387 
C    -2.6530967    2.5731947    0.5707159 
C    -4.8336639    2.4597080   -0.7159026 
H    -5.1184616    3.4591287   -0.3215566 
H    -5.7604132    1.8689317   -0.8793339 
H    -4.3305611    2.5922943   -1.7011959 
N    -3.5543504    0.4328764   -0.3483266 
H    -4.4243813    1.5636566    1.2214043 
H    -2.8473965   -0.0603396    0.2487001 
H    -4.4041410   -0.1792012   -0.3665676 
O    -1.4487164    2.3223555   -0.0768919 
O    -2.7114993    3.6196744    1.4927127 
H    -3.6420627    3.7464523    1.8615045 
