13
Energy =
C    -3.9019845    1.7463942    0.2787586 
C    -2.5078506    2.2773168    0.5913566 
C    -4.6949052    2.7071331   -0.6176456 
H    -4.2093340    2.7730792   -1.6177806 
H    -4.7293180    3.7254467   -0.1731920 
H    -5.7347452    2.3427521   -0.7548128 
N    -3.8482562    0.4377014   -0.3895189 
H    -4.4161241    1.6534190    1.2655144 
H    -3.2968431   -0.2283858    0.2036437 
H    -4.8150341    0.0393010   -0.4495362 
O    -1.7499683    2.9267103   -0.3791682 
O    -1.9756923    2.1003383    1.8629602 
H    -1.0422735    2.4907137    1.8829400 
