13
Energy =
C    -3.7886638    1.8747233    0.4489606 
C    -2.5095328    2.6900373    0.3401109 
C    -4.7390161    2.1621979   -0.7271722 
H    -4.9834842    3.2466623   -0.7696249 
H    -5.6864727    1.5948119   -0.6084963 
H    -4.2584526    1.8772012   -1.6900103 
N    -3.4820384    0.4326460    0.5278391 
H    -4.2880196    2.2118850    1.3892812 
H    -3.8120977    0.0555275    1.4477606 
H    -3.9688436   -0.1243074   -0.2141027 
O    -2.1796929    3.6059570    1.3302435 
O    -1.6573055    2.5301233   -0.7442941 
H    -1.0430651    1.7551294   -0.5432223 
