13
Energy =
C    -3.6801270    1.6823875    0.3296420 
C    -2.3844351    2.4518894    0.0870607 
C    -4.9150521    2.4936127   -0.1065073 
H    -4.9415173    3.4722183    0.4232068 
H    -5.8474776    1.9409855    0.1356634 
H    -4.8798940    2.6916247   -1.2003743 
N    -3.6693703    0.3691599   -0.3461306 
H    -3.7279750    1.5418189    1.4348291 
H    -3.7201753   -0.3972802    0.3646298 
H    -4.4750983    0.2381014   -1.0014690 
O    -2.2667930    3.7639513    0.5357841 
O    -1.2875073    1.8548789   -0.5229191 
H    -0.5366836    2.5293284   -0.5705120 
