13
Energy =
C    -3.8718442    1.9183799    0.2749000 
C    -2.7211898    2.9131815    0.1991415 
C    -4.8870870    2.0962218   -0.8747365 
H    -4.9719800    1.1725699   -1.4876934 
H    -4.5966710    2.9219483   -1.5625647 
H    -5.8953060    2.3219522   -0.4679129 
N    -3.4035942    0.5224557    0.2801365 
H    -4.3816965    2.1375403    1.2446770 
H    -2.7987344    0.3619001   -0.5627177 
H    -2.7838980    0.3718285    1.1124374 
O    -1.9254296    2.9924594   -0.9375419 
O    -2.4521776    3.7456691    1.2754063 
H    -1.6554727    4.3255985    1.0429119 
