13
Energy =
C    -3.7810342    1.9076469    0.3561773 
C    -2.5465285    2.7975505    0.3402490 
C    -4.7283986    2.2406074   -0.8080115 
H    -5.0352384    3.3096085   -0.7575900 
H    -5.6439106    1.6134446   -0.7632690 
H    -4.2209259    2.0762749   -1.7845076 
N    -3.4307529    0.4788821    0.3091255 
H    -4.2898892    2.1320320    1.3247646 
H    -4.2999643   -0.0999306    0.3877858 
H    -2.9918345    0.2540804   -0.6175932 
O    -2.5570634    4.0022144    1.0282898 
O    -1.4304280    2.4576650   -0.4127207 
H    -0.8864040    1.7909591    0.1148387 
