13
Energy =
C    -3.9368168    1.7133338    0.2827199 
C    -2.5738540    2.2401669    0.7433674 
C    -4.5292049    2.5697140   -0.8576219 
H    -4.7790013    1.9518057   -1.7481539 
H    -3.8254447    3.3618432   -1.1991822 
H    -5.4617392    3.0700165   -0.5189182 
N    -3.8681621    0.3134357   -0.1708296 
H    -4.6001555    1.7855292    1.1806592 
H    -3.4871665   -0.2831888    0.6041773 
H    -4.8407346   -0.0420417   -0.3402765 
O    -2.5025837    3.0425495    1.8743120 
O    -1.4106448    1.9899618    0.0194969 
H    -1.6122743    1.3736908   -0.7550023 
