13
Energy =
C    -3.7773040    1.6960520    0.3923791 
C    -2.7215878    2.7898526    0.4515031 
C    -4.9947530    2.1268565   -0.4304431 
H    -5.7420945    1.3048120   -0.4570527 
H    -4.6931482    2.3617517   -1.4751311 
H    -5.4684052    3.0276623    0.0163795 
N    -3.2618902    0.4409717   -0.1766051 
H    -4.0992881    1.5225555    1.4477362 
H    -2.8268793    0.6338002   -1.1125963 
H    -2.4897157    0.0813137    0.4340323 
O    -2.0427364    3.1802497   -0.6980060 
O    -2.4393503    3.4163382    1.6575190 
H    -1.7221717    4.1139631    1.5042535 
