13
Energy =
C    -3.8734723    1.7612461    0.3839423 
C    -2.5572679    2.5109525    0.5446300 
C    -4.6326029    2.2253866   -0.8605662 
H    -4.8651950    3.3101483   -0.7927994 
H    -5.5843819    1.6599694   -0.9541162 
H    -4.0225214    2.0463747   -1.7730398 
N    -3.6892597    0.3047573    0.2908107 
H    -4.4880834    1.9980242    1.2848278 
H    -2.9721972    0.0953806   -0.4480784 
H    -3.2795804   -0.0411174    1.1908058 
O    -2.4353961    3.5104921    1.5017251 
O    -1.4820320    2.2301065   -0.2904130 
H    -0.7097507    2.8356036   -0.0416186 
