13
Energy =
C    -3.6741667    1.6149983    0.1842201 
C    -2.5402713    2.6332121    0.1191000 
C    -5.0246374    2.3056721    0.4437289 
H    -4.9830991    2.8998169    1.3829768 
H    -5.8325337    1.5494232    0.5432949 
H    -5.2686766    2.9939896   -0.3964602 
N    -3.7593544    0.7568497   -1.0205556 
H    -3.4335041    0.9641995    1.0580138 
H    -4.6889854    0.8272116   -1.4973083 
H    -3.0559915    1.0491375   -1.7428564 
O    -1.6672431    2.7742713    1.1913586 
O    -2.3990041    3.4618068   -0.9884192 
H    -1.6067253    4.0737213   -0.8395448 
