13
Energy =
C    -3.7237777    1.6623658    0.2974516 
C    -2.5758451    2.6636231    0.2779057 
C    -5.0900128    2.3516742    0.1259383 
H    -5.2440988    3.1094412    0.9244416 
H    -5.9123239    1.6073767    0.1804825 
H    -5.1288083    2.8737357   -0.8574033 
N    -3.5345837    0.6297047   -0.7404851 
H    -3.6969860    1.1945285    1.3105355 
H    -3.4105882   -0.3070221   -0.2889622 
H    -4.3515362    0.5497595   -1.3908347 
O    -1.4961925    2.5008678    1.1402462 
O    -2.5915881    3.7495572   -0.5931674 
H    -1.7321639    4.2702571   -0.4788657 
