13
Energy =
C    -3.8656594    1.8166140    0.3485582 
C    -2.5093912    2.5025821    0.5508247 
C    -4.7390007    2.5505617   -0.6738627 
H    -4.2383376    2.5786790   -1.6669446 
H    -4.9323386    3.5946415   -0.3458152 
H    -5.7111360    2.0242346   -0.7873643 
N    -3.7261491    0.4213003   -0.0909575 
H    -4.4044629    1.8377351    1.3235961 
H    -3.1220686    0.3805902   -0.9488008 
H    -3.2241057   -0.1260140    0.6485049 
O    -1.8410339    3.0425454   -0.5417594 
O    -1.8930472    2.5439153    1.8012761 
H    -2.4353970    2.0750535    2.5112610 
