13
Energy =
C    -3.4905217    1.6413506    0.1402523 
C    -2.7156210    2.7789549   -0.5337740 
C    -4.8888322    2.0673368    0.6095766 
H    -4.8261650    2.9167858    1.3241821 
H    -5.3998646    1.2139219    1.1058248 
H    -5.5093343    2.3859272   -0.2572958 
N    -3.6473416    0.4712471   -0.7357975 
H    -2.8979300    1.3517692    1.0398628 
H    -4.1184457    0.7580935   -1.6293282 
H    -2.7045002    0.0999950   -1.0019809 
O    -3.3968240    3.8546115   -1.0917260 
O    -1.3245602    2.7460234   -0.6267558 
H    -0.9383810    1.8902920   -0.2564636 
