13
Energy =
C    -3.8698604    1.8242701    0.3527782 
C    -2.4898514    2.4618662    0.5527377 
C    -4.7229255    2.5962432   -0.6586414 
H    -4.8788292    3.6434118   -0.3206778 
H    -5.7130690    2.1043848   -0.7710729 
H    -4.2268441    2.6157430   -1.6542250 
N    -3.7804585    0.4287020   -0.0988057 
H    -4.4026721    1.8555192    1.3307859 
H    -3.1821765    0.3744003   -0.9599464 
H    -3.2940544   -0.1415347    0.6337479 
O    -1.8066297    2.9814705   -0.5405355 
O    -1.8683395    2.4779285    1.8012335 
H    -2.4245159    2.0265101    2.5118312 
