13
Energy =
C    -3.9192955    2.0225076    0.3378809 
C    -2.5843976    2.7647830    0.4796167 
C    -4.6644227    2.3603136   -0.9672695 
H    -4.0528784    2.0789517   -1.8530249 
H    -4.8614344    3.4541788   -1.0260520 
H    -5.6394413    1.8305361   -1.0166411 
N    -3.7408608    0.5648489    0.4248355 
H    -4.5349485    2.3678140    1.2014651 
H    -4.6737398    0.0882484    0.4013325 
H    -3.1934158    0.2204664   -0.4014706 
O    -2.2304483    3.7506171   -0.4352844 
O    -1.7255977    2.5051137    1.5463075 
H    -2.0718788    1.7477704    2.1182494 
