13
Energy =
C    -3.6947961    1.6510162    0.1902992 
C    -2.6740180    2.7628513    0.4199021 
C    -5.0866858    2.2221208   -0.1392529 
H    -5.0555107    2.7848418   -1.0985318 
H    -5.4181658    2.9238631    0.6580592 
H    -5.8335795    1.4033843   -0.2189235 
N    -3.2795762    0.6794425   -0.8476272 
H    -3.7553826    1.1125606    1.1665760 
H    -4.0011614    0.5516140   -1.5965891 
H    -2.3968342    0.9726201   -1.3295527 
O    -1.8630851    2.7392711    1.5452486 
O    -2.5351362    3.8017960   -0.4923807 
H    -1.9818433    3.4833787   -1.2729270 
