13
Energy =
C    -3.8121497    1.7357307    0.3329642 
C    -2.5257362    2.5519684    0.3237981 
C    -4.8367104    2.2907653   -0.6594171 
H    -5.7602663    1.6735519   -0.6331811 
H    -4.4249831    2.2675332   -1.6923276 
H    -5.0991432    3.3401364   -0.4032244 
N    -3.5883759    0.3172393    0.0128712 
H    -4.2309678    1.8203023    1.3642051 
H    -3.0597925    0.2501169   -0.8924846 
H    -2.9588083   -0.0989002    0.7395922 
O    -2.2725262    3.4638291    1.3408254 
O    -1.6146625    2.4213331   -0.7177152 
H    -0.8410206    3.0533833   -0.5543464 
