13
Energy =
C    -3.7538712    1.7239430    0.2435146 
C    -2.5575765    2.6838656    0.2829342 
C    -5.0157679    2.3677757   -0.3726959 
H    -5.3639070    1.8078546   -1.2695450 
H    -4.8397580    3.4202976   -0.6900518 
H    -5.8514251    2.3611744    0.3596463 
N    -3.4668297    0.4768666   -0.4852993 
H    -3.9612091    1.4697086    1.3106610 
H    -3.1595547    0.7077378   -1.4622197 
H    -2.6469864   -0.0049686   -0.0423312 
O    -1.4501520    2.4548515   -0.5245985 
O    -2.5599359    3.7997502    1.1183693 
H    -3.4215712    3.8814740    1.6372920 
