13
Energy =
C    -3.8961879    1.7186529    0.2112149 
C    -2.5131302    2.3682785    0.1878723 
C    -4.9746609    2.6128564   -0.4150928 
H    -4.9798910    3.6162096    0.0632920 
H    -5.9789886    2.1536721   -0.3025977 
H    -4.7607196    2.7468943   -1.4992210 
N    -3.9051899    0.4330220   -0.5025873 
H    -4.1366926    1.5585274    1.2886784 
H    -3.1583488   -0.1873823   -0.1053785 
H    -4.8130031   -0.0567049   -0.3208496 
O    -1.4898851    1.8343933    0.9643057 
O    -2.2574296    3.4973533   -0.5852284 
H    -1.2840582    3.7510238   -0.4796799 
