13
Energy =
C    -3.8191835    1.7420803    0.3181745 
C    -2.3766565    2.2411529    0.3085376 
C    -4.7776258    2.7803285   -0.2952908 
H    -4.7039449    3.7519732    0.2396345 
H    -5.8286632    2.4247121   -0.2243280 
H    -4.5269257    2.9486656   -1.3672724 
N    -3.9900657    0.4315574   -0.3524366 
H    -4.0656751    1.6126186    1.3994121 
H    -4.6998618    0.4623145   -1.1221711 
H    -3.0985165    0.1158344   -0.8092033 
O    -1.6309518    2.2217642   -0.8626068 
O    -1.8208785    2.7928748    1.4544266 
H    -2.1779736    3.7286051    1.5764679 
