13
Energy =
C    -3.8388985    1.8063653    0.2773439 
C    -2.5417782    2.5970815    0.3559533 
C    -4.7530992    2.3250285   -0.8466025 
H    -5.7181403    1.7751739   -0.8546276 
H    -4.2583289    2.2013479   -1.8357289 
H    -4.9693736    3.4067289   -0.7013927 
N    -3.5857139    0.3710835    0.0777311 
H    -4.3362270    1.9570347    1.2656669 
H    -4.4910647   -0.1470208   -0.0093783 
H    -3.0542347    0.2320846   -0.8171358 
O    -2.3127945    3.4538661    1.4266837 
O    -1.6004446    2.5138265   -0.6643316 
H    -0.8156763    3.1081002   -0.4311932 
