13
Energy =
C    -3.8407579    1.7106898    0.3411042 
C    -2.4182915    2.2066591    0.5508896 
C    -4.6850979    2.7295190   -0.4287118 
H    -4.2455786    2.9137347   -1.4337382 
H    -4.7340382    3.6931209    0.1229482 
H    -5.7166244    2.3389470   -0.5624486 
N    -3.8950478    0.4307429   -0.3824040 
H    -4.2751392    1.5798796    1.3615682 
H    -3.3495965    0.5098189   -1.2761588 
H    -3.4113697   -0.3033467    0.1882963 
O    -1.5656038    2.3890268   -0.5324951 
O    -1.9701726    2.5060293    1.8297668 
H    -1.0100668    2.8218287    1.7737395 
