13
Energy =
C    -3.8490751    1.7475964    0.3022401 
C    -2.4397908    2.3040724    0.4871584 
C    -4.7375719    2.7202783   -0.4961706 
H    -4.3323512    2.8547441   -1.5247763 
H    -4.7793040    3.7151835   -0.0021116 
H    -5.7744490    2.3254375   -0.5680304 
N    -3.8710548    0.4050689   -0.3250889 
H    -4.2527771    1.6521690    1.3388418 
H    -4.4557740    0.3757281   -1.1937105 
H    -2.9100691    0.1075854   -0.6270907 
O    -1.5238854    2.2671745   -0.5557894 
O    -2.0844544    2.9243233    1.6768498 
H    -2.4882677    3.8486437    1.7003291 
