13
Energy =
C    -3.9260771    1.7690618    0.2432193 
C    -2.4951675    2.0472784    0.6944329 
C    -4.4664331    2.9001550   -0.6405590 
H    -4.3988984    3.8802689   -0.1212210 
H    -5.5286720    2.7124376   -0.9058285 
H    -3.8761660    2.9520998   -1.5845079 
N    -4.0287270    0.5141530   -0.5160513 
H    -4.5354318    1.7008121    1.1762365 
H    -3.6000325   -0.2670222    0.0364844 
H    -5.0378713    0.2660454   -0.6455026 
O    -1.4467436    2.0482268   -0.2164095 
O    -2.2355761    2.3609149    2.0227531 
H    -2.4954388    3.3216092    2.1900322 
