13
Energy =
C    -3.8466201    1.7438026    0.2873463 
C    -2.5803517    2.5866796    0.4835173 
C    -4.8704755    2.4435239   -0.6499093 
H    -5.1618758    1.8353839   -1.5311047 
H    -4.4694803    3.4008253   -1.0548640 
H    -5.8015218    2.6823362   -0.0919605 
N    -3.5036840    0.3895385   -0.1955713 
H    -4.3107655    1.6545850    1.2980141 
H    -3.7195204   -0.3243569    0.5398122 
H    -4.0136358    0.0977144   -1.0602176 
O    -1.5325299    2.4915976   -0.4252951 
O    -2.4853710    3.5238132    1.5152961 
H    -3.3255508    3.5694405    2.0712108 
