13
Energy =
C    -3.7962063    1.6415629    0.0398423 
C    -2.5046873    2.1989291    0.6493760 
C    -4.7963478    2.7586952   -0.3168544 
H    -4.3657781    3.4324499   -1.0897083 
H    -5.0321389    3.3732996    0.5808811 
H    -5.7450573    2.3236226   -0.6981116 
N    -3.5731526    0.7711966   -1.1400580 
H    -4.2432754    1.0218215    0.8508575 
H    -4.0499915    1.1308725   -2.0004964 
H    -2.5554520    0.7167668   -1.3929497 
O    -2.5385425    3.3434775    1.4339906 
O    -1.3079359    1.5017245    0.5438286 
H    -1.3157088    0.7401401    1.2062477 
