13
Energy =
C    -3.8269163    1.8137633    0.2869429 
C    -2.5336338    2.6134123    0.3299604 
C    -4.7670749    2.3136054   -0.8240313 
H    -4.9875487    3.3954693   -0.6865768 
H    -5.7284305    1.7575635   -0.8063686 
H    -4.2915102    2.1819531   -1.8215188 
N    -3.5684701    0.3779001    0.0986759 
H    -4.3050044    1.9728153    1.2834225 
H    -4.4719496   -0.1468918    0.0356122 
H    -3.0539784    0.2319646   -0.8049646 
O    -2.2886784    3.4843903    1.3855804 
O    -1.6124477    2.5236618   -0.7079904 
H    -0.8270981    3.1256849   -0.4978083 
