13
Energy =
C    -3.7787423    1.7456578    0.2578318 
C    -2.6043218    2.7288373    0.3148475 
C    -4.9861993    2.3393764   -0.4761031 
H    -5.3557380    3.2520815    0.0389573 
H    -5.8106400    1.5934385   -0.5133559 
H    -4.7149602    2.6058203   -1.5220653 
N    -3.4352785    0.4728216   -0.3968062 
H    -4.0665776    1.5383376    1.3156934 
H    -3.0988366    0.6590069   -1.3736903 
H    -2.6226638    0.0333504    0.0999962 
O    -1.5297805    2.5798498   -0.5535646 
O    -2.5996659    3.7963230    1.2114572 
H    -3.4485170    3.8394751    1.7549050 
