13
Energy =
C    -3.7926039    1.5955553    0.2400454 
C    -2.4416733    2.2915224    0.4621850 
C    -4.8830185    2.6073023   -0.1277862 
H    -4.6503071    3.0700071   -1.1139652 
H    -4.9575311    3.4110298    0.6365490 
H    -5.8692239    2.1021677   -0.2060201 
N    -3.7339880    0.5912300   -0.8313402 
H    -4.0683321    1.0951731    1.1971820 
H    -2.9398875   -0.0693418   -0.6521527 
H    -4.6070325    0.0127986   -0.8150138 
O    -1.5419439    2.4279672   -0.5887585 
O    -2.1112859    2.8446083    1.7009599 
H    -2.8502443    2.7276891    2.3777947 
