13
Energy =
C    -3.8998558    1.9896314    0.3601768 
C    -2.6127174    2.8197109    0.4457850 
C    -4.7685260    2.3432126   -0.8617240 
H    -5.0457794    3.4208523   -0.8378917 
H    -5.7048494    1.7457255   -0.8698648 
H    -4.2113577    2.1583343   -1.8067796 
N    -3.6139515    0.5466919    0.3442225 
H    -4.4673945    2.2397239    1.2871910 
H    -4.5102606    0.0042405    0.3623468 
H    -3.1115748    0.2902294   -0.5405943 
O    -2.3978448    3.8725180   -0.4371994 
O    -1.6592407    2.5702611    1.4314125 
H    -1.9075051    1.7614943    1.9835574 
