13
Energy =
C    -3.7602841    1.8201728    0.4587592 
C    -2.4547706    2.5964834    0.3841292 
C    -4.7627503    2.3048111   -0.6039441 
H    -4.3513036    2.1412821   -1.6253115 
H    -4.9606920    3.3925560   -0.4803144 
H    -5.7261554    1.7608642   -0.5056732 
N    -3.5136345    0.3714147    0.3169040 
H    -4.1893942    2.0386906    1.4664355 
H    -3.8064159   -0.1200835    1.1944740 
H    -4.0664322   -0.0573356   -0.4630037 
O    -2.0283766    3.3501447    1.4695891 
O    -1.6743215    2.5619814   -0.7636723 
H    -1.0840559    1.7451363   -0.7117919 
