13
Energy =
C    -3.8357598    1.6942674    0.3353472 
C    -2.4388377    2.2452003    0.5772860 
C    -4.7059196    2.6858554   -0.4412257 
H    -4.8043812    3.6410402    0.1183976 
H    -5.7180565    2.2553598   -0.5984784 
H    -4.2552520    2.8978052   -1.4357890 
N    -3.8241928    0.4204294   -0.4007804 
H    -4.2840613    1.5358058    1.3457802 
H    -3.2651244    0.5302291   -1.2827860 
H    -3.3225094   -0.2992156    0.1727532 
O    -1.5739189    2.4728541   -0.4876939 
O    -2.0274093    2.5492598    1.8673561 
H    -1.0800603    2.9042355    1.8328827 
