13
Energy =
C    -3.5022976    2.0613903    0.4160095 
C    -2.3776271    2.2293421   -0.6034323 
C    -4.7958930    2.7953432    0.0007924 
H    -5.6597944    2.0988779   -0.0663186 
H    -4.6899665    3.2994757   -0.9859686 
H    -5.0516533    3.5736716    0.7506775 
N    -3.8286585    0.6497866    0.6836167 
H    -3.1084669    2.5282884    1.3498209 
H    -4.0721372    0.1840943   -0.2242370 
H    -2.9596134    0.1593143    1.0073391 
O    -1.9631772    3.5014627   -0.9762830 
O    -1.7296851    1.1239186   -1.1403747 
H    -1.0169214    1.4491127   -1.7817634 
