13
Energy =
C    -3.8200874    1.8405264    0.4316208 
C    -2.5776919    2.7174263    0.4488246 
C    -4.7012598    2.1399657   -0.7943452 
H    -5.6259517    1.5252241   -0.7673043 
H    -4.1432646    1.9226936   -1.7327787 
H    -4.9945357    3.2130354   -0.8061508 
N    -3.4497708    0.4117373    0.4679650 
H    -4.3979355    2.1096492    1.3486249 
H    -3.8228710   -0.0232813    1.3448816 
H    -3.8574381   -0.1309163   -0.3301610 
O    -2.3599791    3.5981879    1.4999961 
O    -1.6478233    2.6492402   -0.5800145 
H    -1.0111096    1.8945147   -0.3718328 
