13
Energy =
C    -3.7348248    1.5951112    0.1136626 
C    -2.5955227    2.4828783    0.6198105 
C    -5.0634439    2.3578222   -0.0428440 
H    -5.3468257    2.8411315    0.9192556 
H    -5.8824767    1.6627015   -0.3300460 
H    -4.9861661    3.1505058   -0.8179360 
N    -3.3998395    0.9316998   -1.1563917 
H    -3.8542254    0.8176587    0.9090021 
H    -4.1174441    0.1984374   -1.3688700 
H    -3.4214257    1.6142866   -1.9506748 
O    -2.0564520    2.2366747    1.8767043 
O    -2.1030348    3.5575018   -0.1215075 
H    -2.5715541    3.6416705   -1.0086328 
