13
Energy =
C    -3.7054167    1.6432980    0.0803098 
C    -2.5927318    2.5931906    0.4967908 
C    -5.0428107    2.3833390   -0.0894348 
H    -5.8538563    1.6734553   -0.3569375 
H    -4.9590316    3.1559116   -0.8863296 
H    -5.3226824    2.8968945    0.8574778 
N    -3.3788386    0.9296334   -1.1645504 
H    -3.7885232    0.9072501    0.9164570 
H    -4.1281194    0.2292832   -1.3776886 
H    -3.3510865    1.6061331   -1.9659839 
O    -2.2225060    2.6789515    1.8316892 
O    -1.9918806    3.4362875   -0.4287628 
H    -1.2694225    2.9170177   -0.9059907 
