13
Energy =
C    -3.7735625    1.5935130    0.1548114 
C    -2.6970126    2.6039812    0.5638784 
C    -5.1819356    2.1996020    0.2357796 
H    -5.3756840    2.6072331    1.2529138 
H    -5.9526422    1.4284960    0.0201400 
H    -5.2964631    3.0219626   -0.5045511 
N    -3.5676305    1.0916782   -1.2124494 
H    -3.7004130    0.7510893    0.8849853 
H    -2.6251482    0.6360482   -1.2761287 
H    -4.2647940    0.3351890   -1.4128443 
O    -2.0842432    2.4763738    1.8045831 
O    -2.3282404    3.6632673   -0.2647437 
H    -2.8397787    3.6312055   -1.1351077 
