13
Energy =
C    -3.8012697    1.6440526    0.2771533 
C    -2.4476681    2.3586188    0.4111392 
C    -4.8717235    2.5897540   -0.2957926 
H    -5.8600613    2.0816303   -0.3263717 
H    -4.5966367    2.9052540   -1.3275614 
H    -4.9690619    3.5017948    0.3334448 
N    -3.7324537    0.4040157   -0.5303298 
H    -4.1120892    1.3510766    1.3054735 
H    -4.3904177    0.4144694   -1.3455824 
H    -2.7775039    0.2615200   -0.9427611 
O    -1.6453815    2.5247690   -0.7118580 
O    -2.0260928    2.9106629    1.6214820 
H    -2.6935312    2.7704167    2.3642552 
