13
Energy =
C    -3.8919324    1.7301035    0.2877379 
C    -2.5129101    2.3182930    0.5629175 
C    -4.7516602    2.6617473   -0.5772427 
H    -5.7787804    2.2541785   -0.6858022 
H    -4.2998833    2.7545523   -1.5909887 
H    -4.8158682    3.6748452   -0.1242631 
N    -3.8025387    0.4292076   -0.3918656 
H    -4.3720241    1.6087981    1.2884435 
H    -3.2065125   -0.2167115    0.1800650 
H    -4.7530092   -0.0094019   -0.4269182 
O    -1.8128019    3.0056099   -0.4247628 
O    -1.9358231    2.1563634    1.8168389 
H    -1.0197163    2.5862199    1.8121060 
