13
Energy =
C    -3.7112153    1.5885850    0.2615381 
C    -2.6529628    2.6506050    0.5769873 
C    -5.1048577    2.1801301    0.0169794 
H    -5.1251339    2.8142519   -0.8939852 
H    -5.4282042    2.7913592    0.8881403 
H    -5.8390070    1.3565068   -0.1258474 
N    -3.3575718    0.7454593   -0.8910230 
H    -3.7690518    0.9454005    1.1737328 
H    -3.1897637    1.3345658   -1.7408558 
H    -2.4576227    0.2451944   -0.6905128 
O    -1.9546018    2.5698511    1.7742792 
O    -2.3486472    3.6855947   -0.3076215 
H    -2.9258659    3.6603887   -1.1324008 
