13
Energy =
C    -3.8905793    1.6852343    0.3141280 
C    -2.5863839    2.4291470    0.6168007 
C    -4.7084993    2.4138609   -0.7577231 
H    -4.1757069    2.3877932   -1.7336371 
H    -4.8806527    3.4749927   -0.4701183 
H    -5.6967342    1.9238739   -0.8884264 
N    -3.6573516    0.3084488   -0.1519395 
H    -4.4671903    1.6758063    1.2722567 
H    -3.1400701   -0.2230801    0.5906231 
H    -4.5769929   -0.1853806   -0.2574878 
O    -2.5428524    3.3066714    1.6920905 
O    -1.4603134    2.3000479   -0.1930954 
H    -1.6297339    1.6169698   -0.9169897 
