13
Energy =
C    -3.8247714    1.5851778    0.0999323 
C    -2.5410976    2.2379963    0.6180970 
C    -4.9926038    2.5806890   -0.0292895 
H    -5.9252085    2.0535405   -0.3273794 
H    -4.7740877    3.3649728   -0.7857756 
H    -5.1809798    3.0837357    0.9459291 
N    -3.6203731    0.9026025   -1.1875484 
H    -4.0813666    0.8235347    0.8780148 
H    -4.4595698    0.3161775   -1.4103648 
H    -3.5219105    1.5964170   -1.9661277 
O    -2.0538240    1.8696664    1.8662486 
O    -1.8619034    3.2207782   -0.1027967 
H    -2.3085728    3.4082002   -0.9853547 
