13
Energy =
C    -3.7128293    1.6627276    0.2944082 
C    -2.5586631    2.6543460    0.2232093 
C    -5.0794139    2.3627285    0.1775271 
H    -5.1552376    2.8811341   -0.8055907 
H    -5.1935974    3.1251010    0.9783540 
H    -5.9047465    1.6255275    0.2697843 
N    -3.5756267    0.6250199   -0.7466994 
H    -3.6472067    1.1982514    1.3072862 
H    -3.4405608   -0.3112490   -0.2973929 
H    -4.4195947    0.5497630   -1.3621940 
O    -1.4439172    2.4837264    1.0380420 
O    -2.6034816    3.7393829   -0.6479434 
H    -1.7355313    4.2529335   -0.5722009 
