13
Energy =
C    -3.6340273    1.7721255    0.3150368 
C    -3.0150776    3.1756730    0.3300674 
C    -5.0334651    1.7474636   -0.3311580 
H    -5.4766125    0.7306359   -0.2646358 
H    -4.9699174    2.0490282   -1.4006708 
H    -5.7123371    2.4650833    0.1809888 
N    -2.7613081    0.7604544   -0.3263455 
H    -3.7515312    1.5064643    1.3918972 
H    -3.2031280    0.3355552   -1.1768626 
H    -1.8670084    1.1887024   -0.6714687 
O    -3.5751309    4.1995253   -0.4227806 
O    -1.8748169    3.4478502    1.0834434 
H    -1.5247878    2.6236846    1.5490191 
