13
Energy =
C    -3.9268813    1.6536388    0.2037290 
C    -2.6604404    2.1274957    0.9193227 
C    -4.4746312    2.7142469   -0.7673106 
H    -3.7362786    2.9319895   -1.5702069 
H    -4.6898569    3.6632197   -0.2263210 
H    -5.4164346    2.3596613   -1.2384666 
N    -3.7353368    0.3806362   -0.5127245 
H    -4.6651029    1.4994819    1.0291921 
H    -4.6692957   -0.0541963   -0.7082448 
H    -3.2819184    0.5357471   -1.4441637 
O    -2.7870288    2.7351772    2.1622992 
O    -1.3954912    2.0586589    0.3363010 
H    -1.4200518    1.5570691   -0.5366587 
