13
Energy =
C    -3.6657656    1.6241453    0.1962597 
C    -2.5506028    2.6612680    0.1108117 
C    -5.0313148    2.2965928    0.4227486 
H    -5.2803022    2.9543211   -0.4401805 
H    -5.0098050    2.9197111    1.3437292 
H    -5.8257992    1.5284768    0.5381252 
N    -3.7233846    0.7289274   -0.9829166 
H    -3.4211421    1.0044657    1.0913387 
H    -4.6494995    0.7675857   -1.4700435 
H    -3.0186215    1.0127133   -1.7072555 
O    -1.6914485    2.8515287    1.1866553 
O    -2.4137868    3.4585047   -1.0200112 
H    -1.6346217    4.0895930   -0.8824059 
