13
Energy =
C    -3.6679987    1.5662202    0.1063980 
C    -2.7348337    2.6859058    0.5806768 
C    -5.1387115    2.0227564    0.0319061 
H    -5.2838358    2.7869542   -0.7617107 
H    -5.4612736    2.4599942    1.0036489 
H    -5.8002224    1.1552050   -0.1866522 
N    -3.2536244    0.9643882   -1.1814911 
H    -3.5864298    0.7799920    0.8965269 
H    -4.0287743    0.9384325   -1.8864554 
H    -2.4589886    1.4862146   -1.6249180 
O    -2.0740819    2.5519264    1.7950330 
O    -2.5293836    3.8407414   -0.1743205 
H    -3.0969793    3.8428726   -1.0078028 
