13
Energy =
C    -3.6596568    1.7000913    0.3223961 
C    -2.5858521    2.7738693    0.1724475 
C    -5.0500988    2.2238892   -0.0840718 
H    -5.3078461    3.1310333    0.5076604 
H    -5.8253856    1.4508233    0.1015246 
H    -5.0571033    2.5004649   -1.1610651 
N    -3.3290912    0.4849993   -0.4500478 
H    -3.6772737    1.4680094    1.4130347 
H    -3.2008718   -0.3263875    0.1987804 
H    -4.0737342    0.2175778   -1.1359408 
O    -1.3453978    2.4866884   -0.3886671 
O    -2.8164874    4.0525981    0.6694185 
H    -1.9924965    4.6166468    0.5039992 
