13
Energy =
C    -3.7916587    1.7311431    0.3540795 
C    -2.3835766    2.3103433    0.3963512 
C    -4.7505615    2.6330329   -0.4455984 
H    -5.7814860    2.2189672   -0.4241603 
H    -4.4129527    2.7040276   -1.5053092 
H    -4.7765829    3.6583864   -0.0170908 
N    -3.7824255    0.3671267   -0.2111794 
H    -4.1325762    1.7012085    1.4171823 
H    -4.0587244   -0.3279536    0.5217375 
H    -4.4469184    0.2498690   -1.0125125 
O    -1.6425695    2.4608501   -0.7693699 
O    -1.8579586    2.7781576    1.5951959 
H    -2.2662775    3.6762908    1.8058056 
