13
Energy =
C    -3.6264074    1.7046268    0.2857370 
C    -2.7257408    2.9350478    0.2490166 
C    -5.0758775    2.0585333   -0.0948096 
H    -5.1175418    2.4399684   -1.1399828 
H    -5.4737519    2.8510108    0.5770859 
H    -5.7287265    1.1634064   -0.0087072 
N    -3.1309999    0.5944190   -0.5619796 
H    -3.6150535    1.3698661    1.3504911 
H    -3.8022374    0.3511878   -1.3293083 
H    -2.2433786    0.8589277   -1.0560350 
O    -2.5603208    3.6509966   -0.9283012 
O    -2.0354834    3.3311541    1.3853909 
H    -1.2324973    2.7312161    1.5051872 
