13
Energy =
C    -3.8738266    1.9116978    0.4175143 
C    -2.6443876    2.8160249    0.2464767 
C    -4.9503479    2.1608932   -0.6572680 
H    -5.2687038    3.2268781   -0.6481957 
H    -5.8458875    1.5316187   -0.4676416 
H    -4.5475824    1.9291572   -1.6687140 
N    -3.4854334    0.4868685    0.4230837 
H    -4.3148619    2.1886076    1.4038505 
H    -3.6262639    0.0870870    1.3810693 
H    -4.0679736   -0.0966288   -0.2239052 
O    -2.6170967    3.7836929   -0.7537241 
O    -1.5588942    2.7307992    1.1189694 
H    -1.6639109    1.9574891    1.7588576 
