13
Energy =
C    -3.8400401    1.7491084    0.3103392 
C    -2.5662155    2.5827309    0.3688438 
C    -4.7932947    2.2552845   -0.7749048 
H    -4.3046143    2.2027865   -1.7725968 
H    -5.0864896    3.3089529   -0.5760851 
H    -5.7089242    1.6261936   -0.7963656 
N    -3.5762930    0.3238587    0.0579625 
H    -4.3361077    1.8629942    1.3038234 
H    -2.9807754    0.2334605   -0.8027129 
H    -2.9976843   -0.0579186    0.8435255 
O    -2.4030173    3.5354358    1.3666493 
O    -1.5759314    2.4266780   -0.5938565 
H    -0.8246236    3.0755392   -0.3958083 
