13
Energy =
C    -3.3950238    1.7701370    0.2360085 
C    -2.8665364    3.1874839    0.0652222 
C    -4.9274424    1.7405180    0.2313232 
H    -5.2993547    0.7142553    0.4312423 
H    -5.3051176    2.0680571   -0.7628590 
H    -5.3346199    2.4287922    1.0036461 
N    -2.9145654    0.8810454   -0.8324660 
H    -3.0216390    1.4207290    1.2292442 
H    -1.8659277    0.9132522   -0.8581583 
H    -3.1613564   -0.1091525   -0.5956315 
O    -1.7480059    3.5959164    0.7771615 
O    -3.4481836    4.0621764   -0.8424381 
H    -3.0685019    3.8637243   -1.7566772 
