13
Energy =
C    -5.2689123    2.3178407    0.2379166 
C    -4.0479625    1.4428389   -0.1174712 
H    -5.8320908    1.8963260    1.0985498 
H    -5.9672084    2.3715960   -0.6239977 
H    -4.9744404    3.3573520    0.5076440 
C    -2.7288638    2.2056436   -0.0368046 
N    -4.0598691    0.2439169    0.7363184 
H    -4.1388467    1.1256681   -1.1850357 
H    -3.3070968   -0.4139518    0.4181593 
H    -3.8364562    0.5061449    1.7260448 
O    -1.7847485    2.0631573   -1.0430951 
O    -2.4393009    3.0171927    1.0530839 
H    -2.1466737    2.4371516    1.8249149 
