23
UFF-Energy = 0.0882259
C    -5.8576183    1.9508926   -0.3828704 
C    -5.7660585    0.5988327   -0.3230947 
C    -4.6309208    0.0068522    0.1183227 
C    -4.8078633    2.7568691    0.0042415 
C    -3.6673914    2.1237840    0.4506502 
C    -3.5900066    0.7704916    0.5010886 
H    -2.7701480    2.6677636    0.7228955 
H    -2.6829890    0.2819682    0.8406587 
H    -6.6135229   -0.0094687   -0.6212513 
H    -6.8144271    2.3551564   -0.6935450 
O    -4.5079118   -1.3850357    0.1885156 
H    -5.3344257   -1.8858514   -0.1180681 
C    -4.8952813    4.1414162   -0.0528157 
C    -4.1082560    4.9475977    0.7423357 
C    -4.1998203    6.2982497    0.6829607 
C    -5.0684542    6.8849985   -0.1657706 
C    -5.8521144    6.1263557   -0.9591726 
C    -5.7730743    4.7745977   -0.9073353 
H    -6.3911121    4.2290413   -1.6106086 
H    -6.5417612    6.6036251   -1.6505671 
H    -3.4300027    4.5432729    1.4844377 
H    -3.5789846    6.9132747    1.3292919 
H    -5.1368255    7.9686901   -0.2103915 
