23
UFF-Energy = 0.0878245
C    -5.7759772    1.9764419   -0.6156071 
C    -5.7404527    0.6235028   -0.5258493 
C    -4.7731359    0.0058720    0.1785070 
C    -4.8294602    2.7583934    0.0116151 
C    -3.8517194    2.1002194    0.7272662 
C    -3.8278130    0.7459541    0.8044208 
H    -3.0329352    2.6248572    1.2066461 
H    -3.0392141    0.2533300    1.3624669 
H    -6.4990021    0.0192225   -1.0122779 
H    -6.6157589    2.4009579   -1.1537999 
O    -4.7734460   -1.3917551    0.2432073 
H    -4.0152592   -1.7804555    0.7922848 
C    -4.8593694    4.1439534   -0.0735976 
C    -4.2671169    4.9390571    0.8848991 
C    -4.3014308    6.2907712    0.7963790 
C    -4.9185713    6.8894777   -0.2427681 
C    -5.5067444    6.1418483   -1.1989292 
C    -5.4827610    4.7892529   -1.1207721 
H    -5.9263900    4.2511415   -1.9501482 
H    -5.9923464    6.6283390   -2.0409187 
H    -3.8033270    4.5266152    1.7731144 
H    -3.8396537    6.8973219    1.5711362 
H    -4.9420252    7.9739252   -0.3095341 
