23
UFF-Energy = 0.0896637
C    -5.7838063    1.9586300   -0.4666829 
C    -5.6295733    0.6173762   -0.5993119 
C    -4.4249734    0.0390652   -0.3805476 
C    -4.7271667    2.7671032   -0.1039464 
C    -3.5146753    2.1474548    0.1133148 
C    -3.3759229    0.8057239   -0.0269416 
H    -2.6125017    2.7012836    0.3467689 
H    -2.4118724    0.3339937    0.1342038 
H    -6.4797704    0.0026714   -0.8718761 
H    -6.7877950    2.3436707   -0.6042747 
O    -4.2377156   -1.3414938   -0.5122251 
H    -5.0710760   -1.8512668   -0.7816879 
C    -4.8770406    4.1406823    0.0362805 
C    -5.8848332    4.8267472   -0.6086284 
C    -6.0243345    6.1672466   -0.4685473 
C    -5.1739750    6.8620956    0.3145294 
C    -4.1779891    6.2225069    0.9610993 
C    -4.0250521    4.8828749    0.8271239 
H    -3.2382035    4.4277134    1.4170856 
H    -3.5020925    6.7842131    1.6006967 
H    -6.5687088    4.3417679   -1.2950658 
H    -6.8180104    6.6882790   -0.9976863 
H    -5.2910913    7.9369450    0.4243601 
