23
UFF-Energy = 0.0886001
C    -5.8206400    1.9870207    0.5040047 
C    -5.7951327    0.6337859    0.4160693 
C    -4.7987148    0.0053181   -0.2362301 
C    -4.8338019    2.7585397   -0.0721643 
C    -3.8267859    2.0892092   -0.7351701 
C    -3.8136075    0.7347973   -0.8111508 
H    -2.9780797    2.6041568   -1.1709634 
H    -3.0019235    0.2336245   -1.3269292 
H    -6.5848821    0.0381513    0.8617473 
H    -6.6829995    2.4204069    0.9975155 
O    -4.8108220   -1.3922780   -0.3010808 
H    -4.0288742   -1.7894077   -0.8093635 
C    -4.8530872    4.1445753    0.0114921 
C    -4.1994272    4.9328211   -0.9122922 
C    -4.2236789    6.2848395   -0.8255817 
C    -4.8912635    6.8908223    0.1775355 
C    -5.5401908    6.1501682    1.0991934 
C    -5.5268608    4.7973914    1.0223215 
H    -6.0225567    4.2651087    1.8255728 
H    -6.0668163    6.6422172    1.9128189 
H    -3.6908717    4.5153518   -1.7732456 
H    -3.7124999    6.8857470   -1.5732475 
H    -4.9064132    7.9754971    0.2430720 
