13
Energy =
C    -5.3848006    1.2535995   -0.1556227 
C    -3.8506596    1.3722112   -0.1182917 
H    -5.7828819    1.6693107   -1.1076944 
H    -5.8428553    1.8193074    0.6863071 
H    -5.6965854    0.1898189   -0.0836627 
C    -3.3766458    2.8107614   -0.2867576 
N    -3.3451508    0.7837594    1.1307917 
H    -3.4241625    0.8124141   -0.9842933 
H    -3.7683579    1.2768737    1.9549231 
H    -3.6306538   -0.2224572    1.1899898 
O    -3.9449251    3.8349133    0.4623390 
O    -2.3377805    3.1042777   -1.1595002 
H    -1.4643407    2.9303448   -0.6830540 
