13
Energy =
C    -5.0509315    1.9026170   -0.6078169 
C    -3.9106306    1.2378319    0.1851988 
H    -4.6941585    2.2150755   -1.6140956 
H    -5.4170278    2.8058061   -0.0701265 
H    -5.8943856    1.1915763   -0.7410818 
C    -2.7059396    2.1637326    0.3006741 
N    -4.4077748    0.7575801    1.4959500 
H    -3.5372628    0.3582525   -0.3915203 
H    -3.8838123    1.2040502    2.2882686 
H    -5.4133010    1.0030360    1.6559104 
O    -2.7322378    3.2600707    1.1557361 
O    -1.5837688    1.9439773   -0.4855841 
H    -0.8997627    2.6603079   -0.2772775 
