13
Energy =
C    -5.2955650    1.9372103   -0.2506196 
C    -3.8740130    1.3873098   -0.0935287 
H    -5.3453654    2.6596303   -1.0940624 
H    -5.6138112    2.4558383    0.6807405 
H    -6.0040004    1.1041255   -0.4480360 
C    -2.8676952    2.4945550    0.1789316 
N    -3.8939914    0.3647148    0.9647720 
H    -3.5543918    0.9232101   -1.0583927 
H    -2.9403453   -0.0623205    1.0485512 
H    -4.0839240    0.8266534    1.8882750 
O    -2.8929440    3.1996705    1.3766005 
O    -1.9216130    2.8199689   -0.7818322 
H    -1.3506903    3.5775082   -0.4278698 
