13
Energy =
C    -5.2466750    1.7989792    0.0019804 
C    -3.8049992    1.4122570   -0.3680644 
H    -5.4529160    2.8495379   -0.2989823 
H    -5.4013168    1.7122533    1.1005031 
H    -5.9727893    1.1391600   -0.5183090 
C    -2.7882983    2.3380038    0.2858578 
N    -3.5625774    0.0077159   -0.0084657 
H    -3.6703001    1.5290854   -1.4685191 
H    -3.6929928   -0.1214833    1.0240288 
H    -4.2542985   -0.6085700   -0.4960166 
O    -2.0094958    3.1857537   -0.4948035 
O    -2.6654110    2.3862009    1.6706534 
H    -1.9391000    3.0489245    1.9074634 
