13
Energy =
C    -5.2555416    2.1463495   -0.2244922 
C    -3.9507101    1.3842304    0.0338360 
H    -5.2305837    2.6577814   -1.2108417 
H    -5.4226487    2.9108357    0.5668721 
H    -6.1155175    1.4411077   -0.2099861 
C    -2.7370970    2.3187460    0.0413682 
N    -4.1083212    0.6341566    1.2903329 
H    -3.7819775    0.6598394   -0.7981038 
H    -3.2326684    0.0897553    1.4824948 
H    -4.2005420    1.3064768    2.0914685 
O    -2.1892054    2.7374795    1.2474803 
O    -2.1798470    2.7881884   -1.1473134 
H    -2.6861799    2.4702477   -1.9597013 
