13
Energy =
C    -5.2394821    2.2153759   -0.1972800 
C    -3.9706650    1.3665753    0.0044425 
H    -5.1425507    2.8490704   -1.1068406 
H    -5.4161907    2.8747228    0.6802527 
H    -6.1238846    1.5549959   -0.3318990 
C    -2.7134371    2.2320115    0.0456064 
N    -4.1208490    0.4956868    1.1930590 
H    -3.8334965    0.7125422   -0.8906256 
H    -3.3876976    0.7044053    1.9155016 
H    -5.0416918    0.6228161    1.6751789 
O    -1.9259712    2.3624058   -1.0895456 
O    -2.3811563    2.9526445    1.1863895 
H    -2.9526474    3.7828865    1.2261846 
