13
Energy =
C    -5.3145014    2.1076766   -0.0757436 
C    -3.9711663    1.3601661   -0.1593944 
H    -5.3374572    2.9536791   -0.7968638 
H    -5.4728117    2.5150024    0.9485278 
H    -6.1575785    1.4255145   -0.3192596 
C    -2.7855508    2.2790451    0.1140504 
N    -3.9951155    0.2153468    0.7633668 
H    -3.8190349    0.9820350   -1.1985066 
H    -4.1280384    0.5508420    1.7488059 
H    -4.7995119   -0.4148943    0.5342671 
O    -2.5380751    2.7487649    1.3989499 
O    -2.0044943    2.7403621   -0.9384441 
H    -2.4833941    3.5041147   -1.3919515 
