13
Energy =
C    -5.1018779    2.4858167    0.5908820 
C    -4.0806159    1.4980034    0.0183861 
H    -5.1732341    3.3995898   -0.0401730 
H    -4.8047909    2.7847508    1.6198856 
H    -6.1060104    2.0133828    0.6438701 
C    -2.7030895    2.1797486   -0.1617787 
N    -4.1639038    0.2849260    0.8607636 
H    -4.3920744    1.2533608   -1.0261464 
H    -4.5794084   -0.5061525    0.3130122 
H    -3.2669554   -0.0592998    1.2543035 
O    -2.6733088    3.3379552   -0.9288758 
O    -1.4778549    1.7170206    0.3285510 
H    -1.5077755    0.8672946    0.8540549 
