13
Energy =
C    -5.2742647    2.1645478   -0.1641262 
C    -3.9651512    1.3724652   -0.0470124 
H    -5.2493729    2.8518014   -1.0370420 
H    -5.4281288    2.7709472    0.7561311 
H    -6.1367596    1.4752889   -0.2811932 
C    -2.7449393    2.2954215    0.0345442 
N    -4.0816886    0.4985328    1.1303472 
H    -3.8277783    0.7544139   -0.9640620 
H    -4.7974361   -0.2421797    0.9417846 
H    -3.1766441   -0.0098446    1.2827293 
O    -1.5726507    1.8606348    0.6407007 
O    -2.7358115    3.5170074   -0.6309663 
H    -2.6028744    3.3540164   -1.6179078 
