13
Energy =
C    -5.1725416    2.2617639   -0.2627874 
C    -3.9783011    1.3421366    0.0163350 
H    -4.9624225    2.9280650   -1.1285070 
H    -5.4059671    2.8869976    0.6259106 
H    -6.0705013    1.6491144   -0.4986769 
C    -2.7076812    2.1267643    0.3227212 
N    -4.3566002    0.4201457    1.0990238 
H    -3.7537751    0.7546030   -0.9076620 
H    -3.5682196   -0.2484622    1.2756842 
H    -4.4760868    0.9590719    1.9913945 
O    -1.7694035    2.3376647   -0.6775776 
O    -2.4976971    2.6814167    1.5785918 
H    -3.0126829    3.5469229    1.6416163 
