13
Energy =
C    -5.2520503    2.0232612   -0.2933238 
C    -3.8643990    1.3834491   -0.1423191 
H    -5.1947227    2.9479753   -0.9081276 
H    -5.6521750    2.2923478    0.7104334 
H    -5.9589029    1.3172053   -0.7772007 
C    -2.8378414    2.3685076    0.4110503 
N    -3.9971859    0.1958178    0.7157601 
H    -3.4866734    1.0892034   -1.1506738 
H    -4.6467172   -0.4916980    0.2642269 
H    -3.0719544   -0.2920878    0.7775949 
O    -3.2342974    3.4996537    1.1159989 
O    -1.4826822    2.1334447    0.2213652 
H    -1.1751282    1.4515741    0.8990674 
