13
Energy =
C    -5.3317257    2.0313999    0.1896040 
C    -3.9323409    1.5159895   -0.1614799 
H    -6.1025792    1.3530272   -0.2353241 
H    -5.4871922    3.0533340   -0.2203350 
H    -5.4644645    2.0669970    1.2932867 
C    -2.8428455    2.4203419    0.4011798 
N    -3.8250324    0.1252719    0.3094239 
H    -3.8070942    1.5427699   -1.2706745 
H    -2.8694937   -0.2417991    0.0834292 
H    -3.8815536    0.1159772    1.3574607 
O    -2.3403102    3.4594533   -0.3719745 
O    -2.3674546    2.2417644    1.6947195 
H    -1.6724632    2.9514572    1.8885863 
